                                  MODFLOW-2005     
      U.S. GEOLOGICAL SURVEY MODULAR FINITE-DIFFERENCE GROUND-WATER FLOW MODEL
                            VERSION 1.12.00 2/3/2017

 LIST FILE: example_model.list
                         UNIT    2

 OPENING example_model.dis
 FILE TYPE:DIS   UNIT   11   STATUS:OLD    
 FORMAT:FORMATTED              ACCESS:SEQUENTIAL          

 OPENING example_model.bas
 FILE TYPE:BAS6   UNIT   13   STATUS:OLD    
 FORMAT:FORMATTED              ACCESS:SEQUENTIAL          

 OPENING example_model.lpf
 FILE TYPE:LPF   UNIT   15   STATUS:OLD    
 FORMAT:FORMATTED              ACCESS:SEQUENTIAL          

 OPENING example_model.pcg
 FILE TYPE:PCG   UNIT   27   STATUS:OLD    
 FORMAT:FORMATTED              ACCESS:SEQUENTIAL          

 OPENING example_model.oc
 FILE TYPE:OC   UNIT   14   STATUS:OLD    
 FORMAT:FORMATTED              ACCESS:SEQUENTIAL          

 OPENING example_model.wel
 FILE TYPE:WEL   UNIT   20   STATUS:OLD    
 FORMAT:FORMATTED              ACCESS:SEQUENTIAL          

 OPENING example_model.cbc
 FILE TYPE:DATA(BINARY)   UNIT   53   STATUS:REPLACE
 FORMAT:UNFORMATTED            ACCESS:STREAM              

 OPENING example_model.hds
 FILE TYPE:DATA(BINARY)   UNIT   51   STATUS:REPLACE
 FORMAT:UNFORMATTED            ACCESS:STREAM              

 BAS -- BASIC PACKAGE, VERSION 7, 5/2/2005 INPUT READ FROM UNIT   13
 
 MODFLOW was compiled using mixed precision
 Precision of REAL variables:           6
 Precision of DOUBLE PRECISION variables:          15

 DISCRETIZATION INPUT DATA READ FROM UNIT   11
 # DIS package for SEAWAT generated by Flopy 3.3.6
   50 LAYERS       190 ROWS       220 COLUMNS
    5 STRESS PERIOD(S) IN SIMULATION
 MODEL TIME UNIT IS DAYS
 MODEL LENGTH UNIT IS METERS
  Confining bed flag for each layer:
   0   0   0   0   0   0   0   0   0   0   0   0   0   0   0   0   0   0   0   0
   0   0   0   0   0   0   0   0   0   0   0   0   0   0   0   0   0   0   0   0
   0   0   0   0   0   0   0   0   0   0

                     DELR =   12.0000    

                     DELC =   12.0000    

 TOP ELEVATION OF LAYER 1 =   190.000    

   MODEL LAYER BOTTOM EL. =   189.500     FOR LAYER   1

   MODEL LAYER BOTTOM EL. =   189.000     FOR LAYER   2

   MODEL LAYER BOTTOM EL. =   188.500     FOR LAYER   3

   MODEL LAYER BOTTOM EL. =   188.000     FOR LAYER   4

   MODEL LAYER BOTTOM EL. =   187.500     FOR LAYER   5

   MODEL LAYER BOTTOM EL. =   187.000     FOR LAYER   6

   MODEL LAYER BOTTOM EL. =   186.500     FOR LAYER   7

   MODEL LAYER BOTTOM EL. =   186.000     FOR LAYER   8

   MODEL LAYER BOTTOM EL. =   185.500     FOR LAYER   9

   MODEL LAYER BOTTOM EL. =   185.000     FOR LAYER  10

   MODEL LAYER BOTTOM EL. =   184.500     FOR LAYER  11

   MODEL LAYER BOTTOM EL. =   184.000     FOR LAYER  12

   MODEL LAYER BOTTOM EL. =   183.500     FOR LAYER  13

   MODEL LAYER BOTTOM EL. =   183.000     FOR LAYER  14

   MODEL LAYER BOTTOM EL. =   182.500     FOR LAYER  15

   MODEL LAYER BOTTOM EL. =   182.000     FOR LAYER  16

   MODEL LAYER BOTTOM EL. =   181.500     FOR LAYER  17

   MODEL LAYER BOTTOM EL. =   181.000     FOR LAYER  18

   MODEL LAYER BOTTOM EL. =   180.500     FOR LAYER  19

   MODEL LAYER BOTTOM EL. =   180.000     FOR LAYER  20

   MODEL LAYER BOTTOM EL. =   179.500     FOR LAYER  21

   MODEL LAYER BOTTOM EL. =   179.000     FOR LAYER  22

   MODEL LAYER BOTTOM EL. =   178.500     FOR LAYER  23

   MODEL LAYER BOTTOM EL. =   178.000     FOR LAYER  24

   MODEL LAYER BOTTOM EL. =   177.500     FOR LAYER  25

   MODEL LAYER BOTTOM EL. =   177.000     FOR LAYER  26

   MODEL LAYER BOTTOM EL. =   176.500     FOR LAYER  27

   MODEL LAYER BOTTOM EL. =   176.000     FOR LAYER  28

   MODEL LAYER BOTTOM EL. =   175.500     FOR LAYER  29

   MODEL LAYER BOTTOM EL. =   175.000     FOR LAYER  30

   MODEL LAYER BOTTOM EL. =   174.500     FOR LAYER  31

   MODEL LAYER BOTTOM EL. =   174.000     FOR LAYER  32

   MODEL LAYER BOTTOM EL. =   173.500     FOR LAYER  33

   MODEL LAYER BOTTOM EL. =   173.000     FOR LAYER  34

   MODEL LAYER BOTTOM EL. =   172.500     FOR LAYER  35

   MODEL LAYER BOTTOM EL. =   172.000     FOR LAYER  36

   MODEL LAYER BOTTOM EL. =   171.500     FOR LAYER  37

   MODEL LAYER BOTTOM EL. =   171.000     FOR LAYER  38

   MODEL LAYER BOTTOM EL. =   170.500     FOR LAYER  39

   MODEL LAYER BOTTOM EL. =   170.000     FOR LAYER  40

   MODEL LAYER BOTTOM EL. =   169.500     FOR LAYER  41

   MODEL LAYER BOTTOM EL. =   169.000     FOR LAYER  42

   MODEL LAYER BOTTOM EL. =   168.500     FOR LAYER  43

   MODEL LAYER BOTTOM EL. =   168.000     FOR LAYER  44

   MODEL LAYER BOTTOM EL. =   167.500     FOR LAYER  45

   MODEL LAYER BOTTOM EL. =   167.000     FOR LAYER  46

   MODEL LAYER BOTTOM EL. =   166.500     FOR LAYER  47

   MODEL LAYER BOTTOM EL. =   166.000     FOR LAYER  48

   MODEL LAYER BOTTOM EL. =   165.500     FOR LAYER  49

   MODEL LAYER BOTTOM EL. =   165.000     FOR LAYER  50


 STRESS PERIOD     LENGTH       TIME STEPS     MULTIPLIER FOR DELT    SS FLAG
 ----------------------------------------------------------------------------
        1         30.00000          1                    1.000         SS
        2         30.00000          1                    1.000         TR
        3         30.00000          1                    1.000         TR
        4         30.00000          1                    1.000         TR
        5         30.00000          1                    1.000         TR

 COMBINED STEADY-STATE AND TRANSIENT SIMULATION



 
 # BAS6 package for SEAWAT generated by Flopy 3.3.6                              
 THE FREE FORMAT OPTION HAS BEEN SELECTED



                     BOUNDARY ARRAY FOR LAYER   1
 READING ON UNIT   13 WITH FORMAT:            (220I10) 



                     BOUNDARY ARRAY FOR LAYER   2
 READING ON UNIT   13 WITH FORMAT:            (220I10) 



                     BOUNDARY ARRAY FOR LAYER   3
 READING ON UNIT   13 WITH FORMAT:            (220I10) 



                     BOUNDARY ARRAY FOR LAYER   4
 READING ON UNIT   13 WITH FORMAT:            (220I10) 



                     BOUNDARY ARRAY FOR LAYER   5
 READING ON UNIT   13 WITH FORMAT:            (220I10) 



                     BOUNDARY ARRAY FOR LAYER   6
 READING ON UNIT   13 WITH FORMAT:            (220I10) 



                     BOUNDARY ARRAY FOR LAYER   7
 READING ON UNIT   13 WITH FORMAT:            (220I10) 



                     BOUNDARY ARRAY FOR LAYER   8
 READING ON UNIT   13 WITH FORMAT:            (220I10) 



                     BOUNDARY ARRAY FOR LAYER   9
 READING ON UNIT   13 WITH FORMAT:            (220I10) 



                     BOUNDARY ARRAY FOR LAYER  10
 READING ON UNIT   13 WITH FORMAT:            (220I10) 



                     BOUNDARY ARRAY FOR LAYER  11
 READING ON UNIT   13 WITH FORMAT:            (220I10) 



                     BOUNDARY ARRAY FOR LAYER  12
 READING ON UNIT   13 WITH FORMAT:            (220I10) 



                     BOUNDARY ARRAY FOR LAYER  13
 READING ON UNIT   13 WITH FORMAT:            (220I10) 



                     BOUNDARY ARRAY FOR LAYER  14
 READING ON UNIT   13 WITH FORMAT:            (220I10) 



                     BOUNDARY ARRAY FOR LAYER  15
 READING ON UNIT   13 WITH FORMAT:            (220I10) 



                     BOUNDARY ARRAY FOR LAYER  16
 READING ON UNIT   13 WITH FORMAT:            (220I10) 



                     BOUNDARY ARRAY FOR LAYER  17
 READING ON UNIT   13 WITH FORMAT:            (220I10) 



                     BOUNDARY ARRAY FOR LAYER  18
 READING ON UNIT   13 WITH FORMAT:            (220I10) 



                     BOUNDARY ARRAY FOR LAYER  19
 READING ON UNIT   13 WITH FORMAT:            (220I10) 



                     BOUNDARY ARRAY FOR LAYER  20
 READING ON UNIT   13 WITH FORMAT:            (220I10) 



                     BOUNDARY ARRAY FOR LAYER  21
 READING ON UNIT   13 WITH FORMAT:            (220I10) 



                     BOUNDARY ARRAY FOR LAYER  22
 READING ON UNIT   13 WITH FORMAT:            (220I10) 



                     BOUNDARY ARRAY FOR LAYER  23
 READING ON UNIT   13 WITH FORMAT:            (220I10) 



                     BOUNDARY ARRAY FOR LAYER  24
 READING ON UNIT   13 WITH FORMAT:            (220I10) 



                     BOUNDARY ARRAY FOR LAYER  25
 READING ON UNIT   13 WITH FORMAT:            (220I10) 



                     BOUNDARY ARRAY FOR LAYER  26
 READING ON UNIT   13 WITH FORMAT:            (220I10) 



                     BOUNDARY ARRAY FOR LAYER  27
 READING ON UNIT   13 WITH FORMAT:            (220I10) 



                     BOUNDARY ARRAY FOR LAYER  28
 READING ON UNIT   13 WITH FORMAT:            (220I10) 



                     BOUNDARY ARRAY FOR LAYER  29
 READING ON UNIT   13 WITH FORMAT:            (220I10) 



                     BOUNDARY ARRAY FOR LAYER  30
 READING ON UNIT   13 WITH FORMAT:            (220I10) 



                     BOUNDARY ARRAY FOR LAYER  31
 READING ON UNIT   13 WITH FORMAT:            (220I10) 



                     BOUNDARY ARRAY FOR LAYER  32
 READING ON UNIT   13 WITH FORMAT:            (220I10) 



                     BOUNDARY ARRAY FOR LAYER  33
 READING ON UNIT   13 WITH FORMAT:            (220I10) 



                     BOUNDARY ARRAY FOR LAYER  34
 READING ON UNIT   13 WITH FORMAT:            (220I10) 



                     BOUNDARY ARRAY FOR LAYER  35
 READING ON UNIT   13 WITH FORMAT:            (220I10) 



                     BOUNDARY ARRAY FOR LAYER  36
 READING ON UNIT   13 WITH FORMAT:            (220I10) 



                     BOUNDARY ARRAY FOR LAYER  37
 READING ON UNIT   13 WITH FORMAT:            (220I10) 



                     BOUNDARY ARRAY FOR LAYER  38
 READING ON UNIT   13 WITH FORMAT:            (220I10) 



                     BOUNDARY ARRAY FOR LAYER  39
 READING ON UNIT   13 WITH FORMAT:            (220I10) 



                     BOUNDARY ARRAY FOR LAYER  40
 READING ON UNIT   13 WITH FORMAT:            (220I10) 



                     BOUNDARY ARRAY FOR LAYER  41
 READING ON UNIT   13 WITH FORMAT:            (220I10) 



                     BOUNDARY ARRAY FOR LAYER  42
 READING ON UNIT   13 WITH FORMAT:            (220I10) 



                     BOUNDARY ARRAY FOR LAYER  43
 READING ON UNIT   13 WITH FORMAT:            (220I10) 



                     BOUNDARY ARRAY FOR LAYER  44
 READING ON UNIT   13 WITH FORMAT:            (220I10) 



                     BOUNDARY ARRAY FOR LAYER  45
 READING ON UNIT   13 WITH FORMAT:            (220I10) 



                     BOUNDARY ARRAY FOR LAYER  46
 READING ON UNIT   13 WITH FORMAT:            (220I10) 



                     BOUNDARY ARRAY FOR LAYER  47
 READING ON UNIT   13 WITH FORMAT:            (220I10) 



                     BOUNDARY ARRAY FOR LAYER  48
 READING ON UNIT   13 WITH FORMAT:            (220I10) 



                     BOUNDARY ARRAY FOR LAYER  49
 READING ON UNIT   13 WITH FORMAT:            (220I10) 



                     BOUNDARY ARRAY FOR LAYER  50
 READING ON UNIT   13 WITH FORMAT:            (220I10) 

 AQUIFER HEAD WILL BE SET TO  -999.99     AT ALL NO-FLOW NODES (IBOUND=0).



                       INITIAL HEAD FOR LAYER   1
 READING ON UNIT   13 WITH FORMAT:          (220E15.6) 



                       INITIAL HEAD FOR LAYER   2
 READING ON UNIT   13 WITH FORMAT:          (220E15.6) 



                       INITIAL HEAD FOR LAYER   3
 READING ON UNIT   13 WITH FORMAT:          (220E15.6) 



                       INITIAL HEAD FOR LAYER   4
 READING ON UNIT   13 WITH FORMAT:          (220E15.6) 



                       INITIAL HEAD FOR LAYER   5
 READING ON UNIT   13 WITH FORMAT:          (220E15.6) 



                       INITIAL HEAD FOR LAYER   6
 READING ON UNIT   13 WITH FORMAT:          (220E15.6) 



                       INITIAL HEAD FOR LAYER   7
 READING ON UNIT   13 WITH FORMAT:          (220E15.6) 



                       INITIAL HEAD FOR LAYER   8
 READING ON UNIT   13 WITH FORMAT:          (220E15.6) 



                       INITIAL HEAD FOR LAYER   9
 READING ON UNIT   13 WITH FORMAT:          (220E15.6) 



                       INITIAL HEAD FOR LAYER  10
 READING ON UNIT   13 WITH FORMAT:          (220E15.6) 



                       INITIAL HEAD FOR LAYER  11
 READING ON UNIT   13 WITH FORMAT:          (220E15.6) 



                       INITIAL HEAD FOR LAYER  12
 READING ON UNIT   13 WITH FORMAT:          (220E15.6) 



                       INITIAL HEAD FOR LAYER  13
 READING ON UNIT   13 WITH FORMAT:          (220E15.6) 



                       INITIAL HEAD FOR LAYER  14
 READING ON UNIT   13 WITH FORMAT:          (220E15.6) 



                       INITIAL HEAD FOR LAYER  15
 READING ON UNIT   13 WITH FORMAT:          (220E15.6) 



                       INITIAL HEAD FOR LAYER  16
 READING ON UNIT   13 WITH FORMAT:          (220E15.6) 



                       INITIAL HEAD FOR LAYER  17
 READING ON UNIT   13 WITH FORMAT:          (220E15.6) 



                       INITIAL HEAD FOR LAYER  18
 READING ON UNIT   13 WITH FORMAT:          (220E15.6) 



                       INITIAL HEAD FOR LAYER  19
 READING ON UNIT   13 WITH FORMAT:          (220E15.6) 



                       INITIAL HEAD FOR LAYER  20
 READING ON UNIT   13 WITH FORMAT:          (220E15.6) 



                       INITIAL HEAD FOR LAYER  21
 READING ON UNIT   13 WITH FORMAT:          (220E15.6) 



                       INITIAL HEAD FOR LAYER  22
 READING ON UNIT   13 WITH FORMAT:          (220E15.6) 



                       INITIAL HEAD FOR LAYER  23
 READING ON UNIT   13 WITH FORMAT:          (220E15.6) 



                       INITIAL HEAD FOR LAYER  24
 READING ON UNIT   13 WITH FORMAT:          (220E15.6) 



                       INITIAL HEAD FOR LAYER  25
 READING ON UNIT   13 WITH FORMAT:          (220E15.6) 



                       INITIAL HEAD FOR LAYER  26
 READING ON UNIT   13 WITH FORMAT:          (220E15.6) 



                       INITIAL HEAD FOR LAYER  27
 READING ON UNIT   13 WITH FORMAT:          (220E15.6) 



                       INITIAL HEAD FOR LAYER  28
 READING ON UNIT   13 WITH FORMAT:          (220E15.6) 



                       INITIAL HEAD FOR LAYER  29
 READING ON UNIT   13 WITH FORMAT:          (220E15.6) 



                       INITIAL HEAD FOR LAYER  30
 READING ON UNIT   13 WITH FORMAT:          (220E15.6) 



                       INITIAL HEAD FOR LAYER  31
 READING ON UNIT   13 WITH FORMAT:          (220E15.6) 



                       INITIAL HEAD FOR LAYER  32
 READING ON UNIT   13 WITH FORMAT:          (220E15.6) 



                       INITIAL HEAD FOR LAYER  33
 READING ON UNIT   13 WITH FORMAT:          (220E15.6) 



                       INITIAL HEAD FOR LAYER  34
 READING ON UNIT   13 WITH FORMAT:          (220E15.6) 



                       INITIAL HEAD FOR LAYER  35
 READING ON UNIT   13 WITH FORMAT:          (220E15.6) 



                       INITIAL HEAD FOR LAYER  36
 READING ON UNIT   13 WITH FORMAT:          (220E15.6) 



                       INITIAL HEAD FOR LAYER  37
 READING ON UNIT   13 WITH FORMAT:          (220E15.6) 



                       INITIAL HEAD FOR LAYER  38
 READING ON UNIT   13 WITH FORMAT:          (220E15.6) 



                       INITIAL HEAD FOR LAYER  39
 READING ON UNIT   13 WITH FORMAT:          (220E15.6) 



                       INITIAL HEAD FOR LAYER  40
 READING ON UNIT   13 WITH FORMAT:          (220E15.6) 



                       INITIAL HEAD FOR LAYER  41
 READING ON UNIT   13 WITH FORMAT:          (220E15.6) 



                       INITIAL HEAD FOR LAYER  42
 READING ON UNIT   13 WITH FORMAT:          (220E15.6) 



                       INITIAL HEAD FOR LAYER  43
 READING ON UNIT   13 WITH FORMAT:          (220E15.6) 



                       INITIAL HEAD FOR LAYER  44
 READING ON UNIT   13 WITH FORMAT:          (220E15.6) 



                       INITIAL HEAD FOR LAYER  45
 READING ON UNIT   13 WITH FORMAT:          (220E15.6) 



                       INITIAL HEAD FOR LAYER  46
 READING ON UNIT   13 WITH FORMAT:          (220E15.6) 



                       INITIAL HEAD FOR LAYER  47
 READING ON UNIT   13 WITH FORMAT:          (220E15.6) 



                       INITIAL HEAD FOR LAYER  48
 READING ON UNIT   13 WITH FORMAT:          (220E15.6) 



                       INITIAL HEAD FOR LAYER  49
 READING ON UNIT   13 WITH FORMAT:          (220E15.6) 



                       INITIAL HEAD FOR LAYER  50
 READING ON UNIT   13 WITH FORMAT:          (220E15.6) 
 # OC package for SEAWAT generated by Flopy 3.3.6

 OUTPUT CONTROL IS SPECIFIED ONLY AT TIME STEPS FOR WHICH OUTPUT IS DESIRED
 COMPACT CELL-BY-CELL BUDGET FILES WILL BE WRITTEN
 AUXILIARY DATA WILL BE SAVED IN CELL-BY-CELL BUDGET FILES
 HEAD PRINT FORMAT CODE IS   0    DRAWDOWN PRINT FORMAT CODE IS   0
 HEADS WILL BE SAVED ON UNIT   51    DRAWDOWNS WILL BE SAVED ON UNIT    0

 LPF -- LAYER-PROPERTY FLOW PACKAGE, VERSION 7, 5/2/2005
         INPUT READ FROM UNIT   15
 # LPF package for SEAWAT generated by Flopy 3.3.6
 CELL-BY-CELL FLOWS WILL BE SAVED ON UNIT   53
 HEAD AT CELLS THAT CONVERT TO DRY= -1.00000E+30
 No named parameters

   LAYER FLAGS:
 LAYER       LAYTYP        LAYAVG         CHANI        LAYVKA        LAYWET
 ---------------------------------------------------------------------------
    1             1             0     1.000E+00             0             0
    2             1             0     1.000E+00             0             0
    3             1             0     1.000E+00             0             0
    4             1             0     1.000E+00             0             0
    5             1             0     1.000E+00             0             0
    6             1             0     1.000E+00             0             0
    7             1             0     1.000E+00             0             0
    8             1             0     1.000E+00             0             0
    9             1             0     1.000E+00             0             0
   10             1             0     1.000E+00             0             0
   11             1             0     1.000E+00             0             0
   12             1             0     1.000E+00             0             0
   13             1             0     1.000E+00             0             0
   14             1             0     1.000E+00             0             0
   15             1             0     1.000E+00             0             0
   16             1             0     1.000E+00             0             0
   17             1             0     1.000E+00             0             0
   18             1             0     1.000E+00             0             0
   19             1             0     1.000E+00             0             0
   20             1             0     1.000E+00             0             0
   21             1             0     1.000E+00             0             0
   22             1             0     1.000E+00             0             0
   23             1             0     1.000E+00             0             0
   24             1             0     1.000E+00             0             0
   25             1             0     1.000E+00             0             0
   26             1             0     1.000E+00             0             0
   27             1             0     1.000E+00             0             0
   28             1             0     1.000E+00             0             0
   29             1             0     1.000E+00             0             0
   30             1             0     1.000E+00             0             0
   31             1             0     1.000E+00             0             0
   32             1             0     1.000E+00             0             0
   33             1             0     1.000E+00             0             0
   34             1             0     1.000E+00             0             0
   35             1             0     1.000E+00             0             0
   36             1             0     1.000E+00             0             0
   37             1             0     1.000E+00             0             0
   38             1             0     1.000E+00             0             0
   39             1             0     1.000E+00             0             0
   40             1             0     1.000E+00             0             0
   41             1             0     1.000E+00             0             0
   42             1             0     1.000E+00             0             0
   43             1             0     1.000E+00             0             0
   44             1             0     1.000E+00             0             0
   45             1             0     1.000E+00             0             0
   46             1             0     1.000E+00             0             0
   47             1             0     1.000E+00             0             0
   48             1             0     1.000E+00             0             0
   49             1             0     1.000E+00             0             0
   50             1             0     1.000E+00             0             0

   INTERPRETATION OF LAYER FLAGS:
                        INTERBLOCK     HORIZONTAL    DATA IN
         LAYER TYPE   TRANSMISSIVITY   ANISOTROPY   ARRAY VKA   WETTABILITY
 LAYER      (LAYTYP)      (LAYAVG)       (CHANI)      (LAYVKA)      (LAYWET)
 ---------------------------------------------------------------------------
    1   CONVERTIBLE      HARMONIC     1.000E+00    VERTICAL K  NON-WETTABLE
    2   CONVERTIBLE      HARMONIC     1.000E+00    VERTICAL K  NON-WETTABLE
    3   CONVERTIBLE      HARMONIC     1.000E+00    VERTICAL K  NON-WETTABLE
    4   CONVERTIBLE      HARMONIC     1.000E+00    VERTICAL K  NON-WETTABLE
    5   CONVERTIBLE      HARMONIC     1.000E+00    VERTICAL K  NON-WETTABLE
    6   CONVERTIBLE      HARMONIC     1.000E+00    VERTICAL K  NON-WETTABLE
    7   CONVERTIBLE      HARMONIC     1.000E+00    VERTICAL K  NON-WETTABLE
    8   CONVERTIBLE      HARMONIC     1.000E+00    VERTICAL K  NON-WETTABLE
    9   CONVERTIBLE      HARMONIC     1.000E+00    VERTICAL K  NON-WETTABLE
   10   CONVERTIBLE      HARMONIC     1.000E+00    VERTICAL K  NON-WETTABLE
   11   CONVERTIBLE      HARMONIC     1.000E+00    VERTICAL K  NON-WETTABLE
   12   CONVERTIBLE      HARMONIC     1.000E+00    VERTICAL K  NON-WETTABLE
   13   CONVERTIBLE      HARMONIC     1.000E+00    VERTICAL K  NON-WETTABLE
   14   CONVERTIBLE      HARMONIC     1.000E+00    VERTICAL K  NON-WETTABLE
   15   CONVERTIBLE      HARMONIC     1.000E+00    VERTICAL K  NON-WETTABLE
   16   CONVERTIBLE      HARMONIC     1.000E+00    VERTICAL K  NON-WETTABLE
   17   CONVERTIBLE      HARMONIC     1.000E+00    VERTICAL K  NON-WETTABLE
   18   CONVERTIBLE      HARMONIC     1.000E+00    VERTICAL K  NON-WETTABLE
   19   CONVERTIBLE      HARMONIC     1.000E+00    VERTICAL K  NON-WETTABLE
   20   CONVERTIBLE      HARMONIC     1.000E+00    VERTICAL K  NON-WETTABLE
   21   CONVERTIBLE      HARMONIC     1.000E+00    VERTICAL K  NON-WETTABLE
   22   CONVERTIBLE      HARMONIC     1.000E+00    VERTICAL K  NON-WETTABLE
   23   CONVERTIBLE      HARMONIC     1.000E+00    VERTICAL K  NON-WETTABLE
   24   CONVERTIBLE      HARMONIC     1.000E+00    VERTICAL K  NON-WETTABLE
   25   CONVERTIBLE      HARMONIC     1.000E+00    VERTICAL K  NON-WETTABLE
   26   CONVERTIBLE      HARMONIC     1.000E+00    VERTICAL K  NON-WETTABLE
   27   CONVERTIBLE      HARMONIC     1.000E+00    VERTICAL K  NON-WETTABLE
   28   CONVERTIBLE      HARMONIC     1.000E+00    VERTICAL K  NON-WETTABLE
   29   CONVERTIBLE      HARMONIC     1.000E+00    VERTICAL K  NON-WETTABLE
   30   CONVERTIBLE      HARMONIC     1.000E+00    VERTICAL K  NON-WETTABLE
   31   CONVERTIBLE      HARMONIC     1.000E+00    VERTICAL K  NON-WETTABLE
   32   CONVERTIBLE      HARMONIC     1.000E+00    VERTICAL K  NON-WETTABLE
   33   CONVERTIBLE      HARMONIC     1.000E+00    VERTICAL K  NON-WETTABLE
   34   CONVERTIBLE      HARMONIC     1.000E+00    VERTICAL K  NON-WETTABLE
   35   CONVERTIBLE      HARMONIC     1.000E+00    VERTICAL K  NON-WETTABLE
   36   CONVERTIBLE      HARMONIC     1.000E+00    VERTICAL K  NON-WETTABLE
   37   CONVERTIBLE      HARMONIC     1.000E+00    VERTICAL K  NON-WETTABLE
   38   CONVERTIBLE      HARMONIC     1.000E+00    VERTICAL K  NON-WETTABLE
   39   CONVERTIBLE      HARMONIC     1.000E+00    VERTICAL K  NON-WETTABLE
   40   CONVERTIBLE      HARMONIC     1.000E+00    VERTICAL K  NON-WETTABLE
   41   CONVERTIBLE      HARMONIC     1.000E+00    VERTICAL K  NON-WETTABLE
   42   CONVERTIBLE      HARMONIC     1.000E+00    VERTICAL K  NON-WETTABLE
   43   CONVERTIBLE      HARMONIC     1.000E+00    VERTICAL K  NON-WETTABLE
   44   CONVERTIBLE      HARMONIC     1.000E+00    VERTICAL K  NON-WETTABLE
   45   CONVERTIBLE      HARMONIC     1.000E+00    VERTICAL K  NON-WETTABLE
   46   CONVERTIBLE      HARMONIC     1.000E+00    VERTICAL K  NON-WETTABLE
   47   CONVERTIBLE      HARMONIC     1.000E+00    VERTICAL K  NON-WETTABLE
   48   CONVERTIBLE      HARMONIC     1.000E+00    VERTICAL K  NON-WETTABLE
   49   CONVERTIBLE      HARMONIC     1.000E+00    VERTICAL K  NON-WETTABLE
   50   CONVERTIBLE      HARMONIC     1.000E+00    VERTICAL K  NON-WETTABLE

 WETTING CAPABILITY IS NOT ACTIVE IN ANY LAYER

    HYD. COND. ALONG ROWS =   6.90000     FOR LAYER   1

      VERTICAL HYD. COND. =  0.100000     FOR LAYER   1

         SPECIFIC STORAGE =  2.000000E-04 FOR LAYER   1

           SPECIFIC YIELD =  0.330000     FOR LAYER   1

    HYD. COND. ALONG ROWS =   6.90000     FOR LAYER   2

      VERTICAL HYD. COND. =  0.100000     FOR LAYER   2

         SPECIFIC STORAGE =  2.000000E-04 FOR LAYER   2

           SPECIFIC YIELD =  0.330000     FOR LAYER   2

    HYD. COND. ALONG ROWS =   6.90000     FOR LAYER   3

      VERTICAL HYD. COND. =  0.100000     FOR LAYER   3

         SPECIFIC STORAGE =  2.000000E-04 FOR LAYER   3

           SPECIFIC YIELD =  0.330000     FOR LAYER   3

    HYD. COND. ALONG ROWS =   6.90000     FOR LAYER   4

      VERTICAL HYD. COND. =  0.100000     FOR LAYER   4

         SPECIFIC STORAGE =  2.000000E-04 FOR LAYER   4

           SPECIFIC YIELD =  0.330000     FOR LAYER   4

    HYD. COND. ALONG ROWS =   6.90000     FOR LAYER   5

      VERTICAL HYD. COND. =  0.100000     FOR LAYER   5

         SPECIFIC STORAGE =  2.000000E-04 FOR LAYER   5

           SPECIFIC YIELD =  0.330000     FOR LAYER   5

    HYD. COND. ALONG ROWS =   6.90000     FOR LAYER   6

      VERTICAL HYD. COND. =  0.100000     FOR LAYER   6

         SPECIFIC STORAGE =  2.000000E-04 FOR LAYER   6

           SPECIFIC YIELD =  0.330000     FOR LAYER   6

    HYD. COND. ALONG ROWS =   6.90000     FOR LAYER   7

      VERTICAL HYD. COND. =  0.100000     FOR LAYER   7

         SPECIFIC STORAGE =  2.000000E-04 FOR LAYER   7

           SPECIFIC YIELD =  0.330000     FOR LAYER   7

    HYD. COND. ALONG ROWS =   6.90000     FOR LAYER   8

      VERTICAL HYD. COND. =  0.100000     FOR LAYER   8

         SPECIFIC STORAGE =  2.000000E-04 FOR LAYER   8

           SPECIFIC YIELD =  0.330000     FOR LAYER   8

    HYD. COND. ALONG ROWS =   6.90000     FOR LAYER   9

      VERTICAL HYD. COND. =  0.100000     FOR LAYER   9

         SPECIFIC STORAGE =  2.000000E-04 FOR LAYER   9

           SPECIFIC YIELD =  0.330000     FOR LAYER   9

    HYD. COND. ALONG ROWS =   6.90000     FOR LAYER  10

      VERTICAL HYD. COND. =  0.100000     FOR LAYER  10

         SPECIFIC STORAGE =  2.000000E-04 FOR LAYER  10

           SPECIFIC YIELD =  0.330000     FOR LAYER  10

    HYD. COND. ALONG ROWS =   6.90000     FOR LAYER  11

      VERTICAL HYD. COND. =  0.100000     FOR LAYER  11

         SPECIFIC STORAGE =  2.000000E-04 FOR LAYER  11

           SPECIFIC YIELD =  0.330000     FOR LAYER  11

    HYD. COND. ALONG ROWS =   6.90000     FOR LAYER  12

      VERTICAL HYD. COND. =  0.100000     FOR LAYER  12

         SPECIFIC STORAGE =  2.000000E-04 FOR LAYER  12

           SPECIFIC YIELD =  0.330000     FOR LAYER  12

    HYD. COND. ALONG ROWS =   6.90000     FOR LAYER  13

      VERTICAL HYD. COND. =  0.100000     FOR LAYER  13

         SPECIFIC STORAGE =  2.000000E-04 FOR LAYER  13

           SPECIFIC YIELD =  0.330000     FOR LAYER  13

    HYD. COND. ALONG ROWS =   6.90000     FOR LAYER  14

      VERTICAL HYD. COND. =  0.100000     FOR LAYER  14

         SPECIFIC STORAGE =  2.000000E-04 FOR LAYER  14

           SPECIFIC YIELD =  0.330000     FOR LAYER  14

    HYD. COND. ALONG ROWS =   6.90000     FOR LAYER  15

      VERTICAL HYD. COND. =  0.100000     FOR LAYER  15

         SPECIFIC STORAGE =  2.000000E-04 FOR LAYER  15

           SPECIFIC YIELD =  0.330000     FOR LAYER  15

    HYD. COND. ALONG ROWS =   6.90000     FOR LAYER  16

      VERTICAL HYD. COND. =  0.100000     FOR LAYER  16

         SPECIFIC STORAGE =  2.000000E-04 FOR LAYER  16

           SPECIFIC YIELD =  0.330000     FOR LAYER  16

    HYD. COND. ALONG ROWS =   6.90000     FOR LAYER  17

      VERTICAL HYD. COND. =  0.100000     FOR LAYER  17

         SPECIFIC STORAGE =  2.000000E-04 FOR LAYER  17

           SPECIFIC YIELD =  0.330000     FOR LAYER  17

    HYD. COND. ALONG ROWS =   6.90000     FOR LAYER  18

      VERTICAL HYD. COND. =  0.100000     FOR LAYER  18

         SPECIFIC STORAGE =  2.000000E-04 FOR LAYER  18

           SPECIFIC YIELD =  0.330000     FOR LAYER  18

    HYD. COND. ALONG ROWS =   6.90000     FOR LAYER  19

      VERTICAL HYD. COND. =  0.100000     FOR LAYER  19

         SPECIFIC STORAGE =  2.000000E-04 FOR LAYER  19

           SPECIFIC YIELD =  0.330000     FOR LAYER  19

    HYD. COND. ALONG ROWS =   6.90000     FOR LAYER  20

      VERTICAL HYD. COND. =  0.100000     FOR LAYER  20

         SPECIFIC STORAGE =  2.000000E-04 FOR LAYER  20

           SPECIFIC YIELD =  0.330000     FOR LAYER  20

    HYD. COND. ALONG ROWS =   6.90000     FOR LAYER  21

      VERTICAL HYD. COND. =  0.100000     FOR LAYER  21

         SPECIFIC STORAGE =  2.000000E-04 FOR LAYER  21

           SPECIFIC YIELD =  0.330000     FOR LAYER  21

    HYD. COND. ALONG ROWS =   6.90000     FOR LAYER  22

      VERTICAL HYD. COND. =  0.100000     FOR LAYER  22

         SPECIFIC STORAGE =  2.000000E-04 FOR LAYER  22

           SPECIFIC YIELD =  0.330000     FOR LAYER  22

    HYD. COND. ALONG ROWS =   6.90000     FOR LAYER  23

      VERTICAL HYD. COND. =  0.100000     FOR LAYER  23

         SPECIFIC STORAGE =  2.000000E-04 FOR LAYER  23

           SPECIFIC YIELD =  0.330000     FOR LAYER  23

    HYD. COND. ALONG ROWS =   6.90000     FOR LAYER  24

      VERTICAL HYD. COND. =  0.100000     FOR LAYER  24

         SPECIFIC STORAGE =  2.000000E-04 FOR LAYER  24

           SPECIFIC YIELD =  0.330000     FOR LAYER  24

    HYD. COND. ALONG ROWS =   6.90000     FOR LAYER  25

      VERTICAL HYD. COND. =  0.100000     FOR LAYER  25

         SPECIFIC STORAGE =  2.000000E-04 FOR LAYER  25

           SPECIFIC YIELD =  0.330000     FOR LAYER  25

    HYD. COND. ALONG ROWS =   6.90000     FOR LAYER  26

      VERTICAL HYD. COND. =  0.100000     FOR LAYER  26

         SPECIFIC STORAGE =  2.000000E-04 FOR LAYER  26

           SPECIFIC YIELD =  0.330000     FOR LAYER  26

    HYD. COND. ALONG ROWS =   6.90000     FOR LAYER  27

      VERTICAL HYD. COND. =  0.100000     FOR LAYER  27

         SPECIFIC STORAGE =  2.000000E-04 FOR LAYER  27

           SPECIFIC YIELD =  0.330000     FOR LAYER  27

    HYD. COND. ALONG ROWS =   6.90000     FOR LAYER  28

      VERTICAL HYD. COND. =  0.100000     FOR LAYER  28

         SPECIFIC STORAGE =  2.000000E-04 FOR LAYER  28

           SPECIFIC YIELD =  0.330000     FOR LAYER  28

    HYD. COND. ALONG ROWS =   6.90000     FOR LAYER  29

      VERTICAL HYD. COND. =  0.100000     FOR LAYER  29

         SPECIFIC STORAGE =  2.000000E-04 FOR LAYER  29

           SPECIFIC YIELD =  0.330000     FOR LAYER  29

    HYD. COND. ALONG ROWS =   6.90000     FOR LAYER  30

      VERTICAL HYD. COND. =  0.100000     FOR LAYER  30

         SPECIFIC STORAGE =  2.000000E-04 FOR LAYER  30

           SPECIFIC YIELD =  0.330000     FOR LAYER  30

    HYD. COND. ALONG ROWS =   6.90000     FOR LAYER  31

      VERTICAL HYD. COND. =  0.100000     FOR LAYER  31

         SPECIFIC STORAGE =  2.000000E-04 FOR LAYER  31

           SPECIFIC YIELD =  0.330000     FOR LAYER  31

    HYD. COND. ALONG ROWS =   6.90000     FOR LAYER  32

      VERTICAL HYD. COND. =  0.100000     FOR LAYER  32

         SPECIFIC STORAGE =  2.000000E-04 FOR LAYER  32

           SPECIFIC YIELD =  0.330000     FOR LAYER  32

    HYD. COND. ALONG ROWS =   6.90000     FOR LAYER  33

      VERTICAL HYD. COND. =  0.100000     FOR LAYER  33

         SPECIFIC STORAGE =  2.000000E-04 FOR LAYER  33

           SPECIFIC YIELD =  0.330000     FOR LAYER  33

    HYD. COND. ALONG ROWS =   6.90000     FOR LAYER  34

      VERTICAL HYD. COND. =  0.100000     FOR LAYER  34

         SPECIFIC STORAGE =  2.000000E-04 FOR LAYER  34

           SPECIFIC YIELD =  0.330000     FOR LAYER  34

    HYD. COND. ALONG ROWS =   6.90000     FOR LAYER  35

      VERTICAL HYD. COND. =  0.100000     FOR LAYER  35

         SPECIFIC STORAGE =  2.000000E-04 FOR LAYER  35

           SPECIFIC YIELD =  0.330000     FOR LAYER  35

    HYD. COND. ALONG ROWS =   6.90000     FOR LAYER  36

      VERTICAL HYD. COND. =  0.100000     FOR LAYER  36

         SPECIFIC STORAGE =  2.000000E-04 FOR LAYER  36

           SPECIFIC YIELD =  0.330000     FOR LAYER  36

    HYD. COND. ALONG ROWS =   6.90000     FOR LAYER  37

      VERTICAL HYD. COND. =  0.100000     FOR LAYER  37

         SPECIFIC STORAGE =  2.000000E-04 FOR LAYER  37

           SPECIFIC YIELD =  0.330000     FOR LAYER  37

    HYD. COND. ALONG ROWS =   6.90000     FOR LAYER  38

      VERTICAL HYD. COND. =  0.100000     FOR LAYER  38

         SPECIFIC STORAGE =  2.000000E-04 FOR LAYER  38

           SPECIFIC YIELD =  0.330000     FOR LAYER  38

    HYD. COND. ALONG ROWS =   6.90000     FOR LAYER  39

      VERTICAL HYD. COND. =  0.100000     FOR LAYER  39

         SPECIFIC STORAGE =  2.000000E-04 FOR LAYER  39

           SPECIFIC YIELD =  0.330000     FOR LAYER  39

    HYD. COND. ALONG ROWS =   6.90000     FOR LAYER  40

      VERTICAL HYD. COND. =  0.100000     FOR LAYER  40

         SPECIFIC STORAGE =  2.000000E-04 FOR LAYER  40

           SPECIFIC YIELD =  0.330000     FOR LAYER  40

    HYD. COND. ALONG ROWS =   6.90000     FOR LAYER  41

      VERTICAL HYD. COND. =  0.100000     FOR LAYER  41

         SPECIFIC STORAGE =  2.000000E-04 FOR LAYER  41

           SPECIFIC YIELD =  0.330000     FOR LAYER  41

    HYD. COND. ALONG ROWS =   6.90000     FOR LAYER  42

      VERTICAL HYD. COND. =  0.100000     FOR LAYER  42

         SPECIFIC STORAGE =  2.000000E-04 FOR LAYER  42

           SPECIFIC YIELD =  0.330000     FOR LAYER  42

    HYD. COND. ALONG ROWS =   6.90000     FOR LAYER  43

      VERTICAL HYD. COND. =  0.100000     FOR LAYER  43

         SPECIFIC STORAGE =  2.000000E-04 FOR LAYER  43

           SPECIFIC YIELD =  0.330000     FOR LAYER  43

    HYD. COND. ALONG ROWS =   6.90000     FOR LAYER  44

      VERTICAL HYD. COND. =  0.100000     FOR LAYER  44

         SPECIFIC STORAGE =  2.000000E-04 FOR LAYER  44

           SPECIFIC YIELD =  0.330000     FOR LAYER  44

    HYD. COND. ALONG ROWS =   6.90000     FOR LAYER  45

      VERTICAL HYD. COND. =  0.100000     FOR LAYER  45

         SPECIFIC STORAGE =  2.000000E-04 FOR LAYER  45

           SPECIFIC YIELD =  0.330000     FOR LAYER  45

    HYD. COND. ALONG ROWS =   6.90000     FOR LAYER  46

      VERTICAL HYD. COND. =  0.100000     FOR LAYER  46

         SPECIFIC STORAGE =  2.000000E-04 FOR LAYER  46

           SPECIFIC YIELD =  0.330000     FOR LAYER  46

    HYD. COND. ALONG ROWS =   6.90000     FOR LAYER  47

      VERTICAL HYD. COND. =  0.100000     FOR LAYER  47

         SPECIFIC STORAGE =  2.000000E-04 FOR LAYER  47

           SPECIFIC YIELD =  0.330000     FOR LAYER  47

    HYD. COND. ALONG ROWS =   6.90000     FOR LAYER  48

      VERTICAL HYD. COND. =  0.100000     FOR LAYER  48

         SPECIFIC STORAGE =  2.000000E-04 FOR LAYER  48

           SPECIFIC YIELD =  0.330000     FOR LAYER  48

    HYD. COND. ALONG ROWS =   6.90000     FOR LAYER  49

      VERTICAL HYD. COND. =  0.100000     FOR LAYER  49

         SPECIFIC STORAGE =  2.000000E-04 FOR LAYER  49

           SPECIFIC YIELD =  0.330000     FOR LAYER  49

    HYD. COND. ALONG ROWS =   6.90000     FOR LAYER  50

      VERTICAL HYD. COND. =  0.100000     FOR LAYER  50

         SPECIFIC STORAGE =  2.000000E-04 FOR LAYER  50

           SPECIFIC YIELD =  0.330000     FOR LAYER  50

 WEL -- WELL PACKAGE, VERSION 7, 5/2/2005 INPUT READ FROM UNIT   20
 # WEL package for SEAWAT generated by Flopy 3.3.6
 No named parameters
 MAXIMUM OF      1 ACTIVE WELLS AT ONE TIME
 CELL-BY-CELL FLOWS WILL BE SAVED ON UNIT   53


     0 Well parameters

 PCG -- CONJUGATE-GRADIENT SOLUTION PACKAGE, VERSION 7, 5/2/2005
 # PCG package for SEAWAT generated by Flopy 3.3.6
 MAXIMUM OF     50 CALLS OF SOLUTION ROUTINE
 MAXIMUM OF     30 INTERNAL ITERATIONS PER CALL TO SOLUTION ROUTINE
 MATRIX PRECONDITIONING TYPE :    1



                                    SOLUTION BY THE CONJUGATE-GRADIENT METHOD
                                   -------------------------------------------
                    MAXIMUM NUMBER OF CALLS TO PCG ROUTINE =       50
                        MAXIMUM ITERATIONS PER CALL TO PCG =       30
                               MATRIX PRECONDITIONING TYPE =        1
        RELAXATION FACTOR (ONLY USED WITH PRECOND. TYPE 1) =    0.10000E+01
 PARAMETER OF POLYNOMIAL PRECOND. = 2 (2) OR IS CALCULATED :        0
                         HEAD CHANGE CRITERION FOR CLOSURE =    0.10000E-02
                     RESIDUAL CHANGE CRITERION FOR CLOSURE =    0.10000E-04
            PCG HEAD AND RESIDUAL CHANGE PRINTOUT INTERVAL =      999
     PRINTING FROM SOLVER IS LIMITED(1) OR SUPPRESSED (>1) =        3
                            STEADY-STATE DAMPING PARAMETER =    0.10000E+01
                               TRANSIENT DAMPING PARAMETER =    0.10000E+01
1
                            STRESS PERIOD NO.    1, LENGTH =   30.00000    
                            -----------------------------------------------

                              NUMBER OF TIME STEPS =     1

                               MULTIPLIER FOR DELT =     1.000

                            INITIAL TIME STEP SIZE =   30.00000    

      0 WELLS
 
 SOLVING FOR HEAD 

 CELL CONVERSIONS FOR ITER.=  1  LAYER=  1  STEP=  1  PERIOD=   1   (ROW,COL)
    DRY(  1,  1)   DRY(  1,  2)   DRY(  1,  3)   DRY(  1,  4)   DRY(  1,  5)   
    DRY(  1,  6)   DRY(  1,  7)   DRY(  1,  8)   DRY(  1,  9)   DRY(  1, 10)   
    DRY(  1, 11)   DRY(  1, 12)   DRY(  1, 13)   DRY(  1, 14)   DRY(  1, 15)   
    DRY(  1, 16)   DRY(  1, 17)   DRY(  1, 18)   DRY(  1, 19)   DRY(  1, 20)   
    DRY(  1, 21)   DRY(  1, 22)   DRY(  1, 23)   DRY(  1, 24)   DRY(  1, 25)   
    DRY(  1, 26)   DRY(  1, 27)   DRY(  1, 28)   DRY(  1, 29)   DRY(  1, 30)   
    DRY(  1, 31)   DRY(  1, 32)   DRY(  1, 33)   DRY(  1, 34)   DRY(  1, 35)   
    DRY(  1, 36)   DRY(  1, 37)   DRY(  1, 38)   DRY(  1, 39)   DRY(  1, 40)   
    DRY(  1, 41)   DRY(  1, 42)   DRY(  1, 43)   DRY(  1, 44)   DRY(  1, 45)   
    DRY(  1, 46)   DRY(  1, 47)   DRY(  1, 48)   DRY(  1, 49)   DRY(  1, 50)   
    DRY(  1, 51)   DRY(  1, 52)   DRY(  1, 53)   DRY(  1, 54)   DRY(  1, 55)   
    DRY(  1, 56)   DRY(  1, 57)   DRY(  1, 58)   DRY(  1, 59)   DRY(  1, 60)   
    DRY(  1, 61)   DRY(  1, 62)   DRY(  1, 63)   DRY(  1, 64)   DRY(  1, 65)   
    DRY(  1, 66)   DRY(  1, 67)   DRY(  1, 68)   DRY(  1, 69)   DRY(  1, 70)   
    DRY(  1, 71)   DRY(  1, 72)   DRY(  1, 73)   DRY(  1, 74)   DRY(  1, 75)   
    DRY(  1, 76)   DRY(  1, 77)   DRY(  1, 78)   DRY(  1, 79)   DRY(  1, 80)   
    DRY(  1, 81)   DRY(  1, 82)   DRY(  1, 83)   DRY(  1, 84)   DRY(  1, 85)   
    DRY(  1, 86)   DRY(  1, 87)   DRY(  1, 88)   DRY(  1, 89)   DRY(  1, 90)   
    DRY(  1, 91)   DRY(  1, 92)   DRY(  1, 93)   DRY(  1, 94)   DRY(  1, 95)   
    DRY(  1, 96)   DRY(  1, 97)   DRY(  1, 98)   DRY(  1, 99)   DRY(  1,100)   
    DRY(  1,101)   DRY(  1,102)   DRY(  1,103)   DRY(  1,104)   DRY(  1,105)   
    DRY(  1,106)   DRY(  1,107)   DRY(  1,108)   DRY(  1,109)   DRY(  1,110)   
    DRY(  1,111)   DRY(  1,112)   DRY(  1,113)   DRY(  1,114)   DRY(  1,115)   
    DRY(  1,116)   DRY(  1,117)   DRY(  1,118)   DRY(  1,119)   DRY(  1,120)   
    DRY(  1,121)   DRY(  1,122)   DRY(  1,123)   DRY(  1,124)   DRY(  1,125)   
    DRY(  1,126)   DRY(  1,127)   DRY(  1,128)   DRY(  1,129)   DRY(  1,130)   
    DRY(  1,131)   DRY(  1,132)   DRY(  1,133)   DRY(  1,134)   DRY(  1,135)   
    DRY(  1,136)   DRY(  1,137)   DRY(  1,138)   DRY(  1,139)   DRY(  1,140)   
    DRY(  1,141)   DRY(  1,142)   DRY(  1,143)   DRY(  1,144)   DRY(  1,145)   
    DRY(  1,146)   DRY(  1,147)   DRY(  1,148)   DRY(  1,149)   DRY(  1,150)   
    DRY(  1,151)   DRY(  1,152)   DRY(  1,153)   DRY(  1,154)   DRY(  1,155)   
    DRY(  1,156)   DRY(  1,157)   DRY(  1,158)   DRY(  1,159)   DRY(  1,160)   
    DRY(  1,161)   DRY(  1,162)   DRY(  1,163)   DRY(  1,164)   DRY(  1,165)   
    DRY(  1,166)   DRY(  1,167)   DRY(  1,168)   DRY(  1,169)   DRY(  1,170)   
    DRY(  1,171)   DRY(  1,172)   DRY(  1,173)   DRY(  1,174)   DRY(  1,175)   
    DRY(  1,176)   DRY(  1,177)   DRY(  1,178)   DRY(  1,179)   DRY(  1,180)   
    DRY(  1,181)   DRY(  1,182)   DRY(  1,183)   DRY(  1,184)   DRY(  1,185)   
    DRY(  1,186)   DRY(  1,187)   DRY(  1,188)   DRY(  1,189)   DRY(  1,190)   
    DRY(  1,191)   DRY(  1,192)   DRY(  1,193)   DRY(  1,194)   DRY(  1,195)   
    DRY(  1,196)   DRY(  1,197)   DRY(  1,198)   DRY(  1,199)   DRY(  1,200)   
    DRY(  1,201)   DRY(  1,202)   DRY(  1,203)   DRY(  1,204)   DRY(  1,205)   
    DRY(  1,206)   DRY(  1,207)   DRY(  1,208)   DRY(  1,209)   DRY(  1,210)   
    DRY(  1,211)   DRY(  1,212)   DRY(  1,213)   DRY(  1,214)   DRY(  1,215)   
    DRY(  1,216)   DRY(  1,217)   DRY(  1,218)   DRY(  1,219)   DRY(  1,220)   
    DRY(  2,  1)   DRY(  2,  2)   DRY(  2,  3)   DRY(  2,  4)   DRY(  2,  5)   
    DRY(  2,  6)   DRY(  2,  7)   DRY(  2,  8)   DRY(  2,  9)   DRY(  2, 10)   
    DRY(  2, 11)   DRY(  2, 12)   DRY(  2, 13)   DRY(  2, 14)   DRY(  2, 15)   
    DRY(  2, 16)   DRY(  2, 17)   DRY(  2, 18)   DRY(  2, 19)   DRY(  2, 20)   
    DRY(  2, 21)   DRY(  2, 22)   DRY(  2, 23)   DRY(  2, 24)   DRY(  2, 25)   
    DRY(  2, 26)   DRY(  2, 27)   DRY(  2, 28)   DRY(  2, 29)   DRY(  2, 30)   
    DRY(  2, 31)   DRY(  2, 32)   DRY(  2, 33)   DRY(  2, 34)   DRY(  2, 35)   
    DRY(  2, 36)   DRY(  2, 37)   DRY(  2, 38)   DRY(  2, 39)   DRY(  2, 40)   
    DRY(  2, 41)   DRY(  2, 42)   DRY(  2, 43)   DRY(  2, 44)   DRY(  2, 45)   
    DRY(  2, 46)   DRY(  2, 47)   DRY(  2, 48)   DRY(  2, 49)   DRY(  2, 50)   
    DRY(  2, 51)   DRY(  2, 52)   DRY(  2, 53)   DRY(  2, 54)   DRY(  2, 55)   
    DRY(  2, 56)   DRY(  2, 57)   DRY(  2, 58)   DRY(  2, 59)   DRY(  2, 60)   
    DRY(  2, 61)   DRY(  2, 62)   DRY(  2, 63)   DRY(  2, 64)   DRY(  2, 65)   
    DRY(  2, 66)   DRY(  2, 67)   DRY(  2, 68)   DRY(  2, 69)   DRY(  2, 70)   
    DRY(  2, 71)   DRY(  2, 72)   DRY(  2, 73)   DRY(  2, 74)   DRY(  2, 75)   
    DRY(  2, 76)   DRY(  2, 77)   DRY(  2, 78)   DRY(  2, 79)   DRY(  2, 80)   
    DRY(  2, 81)   DRY(  2, 82)   DRY(  2, 83)   DRY(  2, 84)   DRY(  2, 85)   
    DRY(  2, 86)   DRY(  2, 87)   DRY(  2, 88)   DRY(  2, 89)   DRY(  2, 90)   
    DRY(  2, 91)   DRY(  2, 92)   DRY(  2, 93)   DRY(  2, 94)   DRY(  2, 95)   
    DRY(  2, 96)   DRY(  2, 97)   DRY(  2, 98)   DRY(  2, 99)   DRY(  2,100)   
    DRY(  2,101)   DRY(  2,102)   DRY(  2,103)   DRY(  2,104)   DRY(  2,105)   
    DRY(  2,106)   DRY(  2,107)   DRY(  2,108)   DRY(  2,109)   DRY(  2,110)   
    DRY(  2,111)   DRY(  2,112)   DRY(  2,113)   DRY(  2,114)   DRY(  2,115)   
    DRY(  2,116)   DRY(  2,117)   DRY(  2,118)   DRY(  2,119)   DRY(  2,120)   
    DRY(  2,121)   DRY(  2,122)   DRY(  2,123)   DRY(  2,124)   DRY(  2,125)   
    DRY(  2,126)   DRY(  2,127)   DRY(  2,128)   DRY(  2,129)   DRY(  2,130)   
    DRY(  2,131)   DRY(  2,132)   DRY(  2,133)   DRY(  2,134)   DRY(  2,135)   
    DRY(  2,136)   DRY(  2,137)   DRY(  2,138)   DRY(  2,139)   DRY(  2,140)   
    DRY(  2,141)   DRY(  2,142)   DRY(  2,143)   DRY(  2,144)   DRY(  2,145)   
    DRY(  2,146)   DRY(  2,147)   DRY(  2,148)   DRY(  2,149)   DRY(  2,150)   
    DRY(  2,151)   DRY(  2,152)   DRY(  2,153)   DRY(  2,154)   DRY(  2,155)   
    DRY(  2,156)   DRY(  2,157)   DRY(  2,158)   DRY(  2,159)   DRY(  2,160)   
    DRY(  2,161)   DRY(  2,162)   DRY(  2,163)   DRY(  2,164)   DRY(  2,165)   
    DRY(  2,166)   DRY(  2,167)   DRY(  2,168)   DRY(  2,169)   DRY(  2,170)   
    DRY(  2,171)   DRY(  2,172)   DRY(  2,173)   DRY(  2,174)   DRY(  2,175)   
    DRY(  2,176)   DRY(  2,177)   DRY(  2,178)   DRY(  2,179)   DRY(  2,180)   
    DRY(  2,181)   DRY(  2,182)   DRY(  2,183)   DRY(  2,184)   DRY(  2,185)   
    DRY(  2,186)   DRY(  2,187)   DRY(  2,188)   DRY(  2,189)   DRY(  2,190)   
    DRY(  2,191)   DRY(  2,192)   DRY(  2,193)   DRY(  2,194)   DRY(  2,195)   
    DRY(  2,196)   DRY(  2,197)   DRY(  2,198)   DRY(  2,199)   DRY(  2,200)   
    DRY(  2,201)   DRY(  2,202)   DRY(  2,203)   DRY(  2,204)   DRY(  2,205)   
    DRY(  2,206)   DRY(  2,207)   DRY(  2,208)   DRY(  2,209)   DRY(  2,210)   
    DRY(  2,211)   DRY(  2,212)   DRY(  2,213)   DRY(  2,214)   DRY(  2,215)   
    DRY(  2,216)   DRY(  2,217)   DRY(  2,218)   DRY(  2,219)   DRY(  2,220)   

 CELL CONVERSIONS FOR ITER.=  1  LAYER=  2  STEP=  1  PERIOD=   1   (ROW,COL)
    DRY(  1,  1)   DRY(  1,  2)   DRY(  1,  3)   DRY(  1,  4)   DRY(  1,  5)   
    DRY(  1,  6)   DRY(  1,  7)   DRY(  1,  8)   DRY(  1,  9)   DRY(  1, 10)   
    DRY(  1, 11)   DRY(  1, 12)   DRY(  1, 13)   DRY(  1, 14)   DRY(  1, 15)   
    DRY(  1, 16)   DRY(  1, 17)   DRY(  1, 18)   DRY(  1, 19)   DRY(  1, 20)   
    DRY(  1, 21)   DRY(  1, 22)   DRY(  1, 23)   DRY(  1, 24)   DRY(  1, 25)   
    DRY(  1, 26)   DRY(  1, 27)   DRY(  1, 28)   DRY(  1, 29)   DRY(  1, 30)   
    DRY(  1, 31)   DRY(  1, 32)   DRY(  1, 33)   DRY(  1, 34)   DRY(  1, 35)   
    DRY(  1, 36)   DRY(  1, 37)   DRY(  1, 38)   DRY(  1, 39)   DRY(  1, 40)   
    DRY(  1, 41)   DRY(  1, 42)   DRY(  1, 43)   DRY(  1, 44)   DRY(  1, 45)   
    DRY(  1, 46)   DRY(  1, 47)   DRY(  1, 48)   DRY(  1, 49)   DRY(  1, 50)   
    DRY(  1, 51)   DRY(  1, 52)   DRY(  1, 53)   DRY(  1, 54)   DRY(  1, 55)   
    DRY(  1, 56)   DRY(  1, 57)   DRY(  1, 58)   DRY(  1, 59)   DRY(  1, 60)   
    DRY(  1, 61)   DRY(  1, 62)   DRY(  1, 63)   DRY(  1, 64)   DRY(  1, 65)   
    DRY(  1, 66)   DRY(  1, 67)   DRY(  1, 68)   DRY(  1, 69)   DRY(  1, 70)   
    DRY(  1, 71)   DRY(  1, 72)   DRY(  1, 73)   DRY(  1, 74)   DRY(  1, 75)   
    DRY(  1, 76)   DRY(  1, 77)   DRY(  1, 78)   DRY(  1, 79)   DRY(  1, 80)   
    DRY(  1, 81)   DRY(  1, 82)   DRY(  1, 83)   DRY(  1, 84)   DRY(  1, 85)   
    DRY(  1, 86)   DRY(  1, 87)   DRY(  1, 88)   DRY(  1, 89)   DRY(  1, 90)   
    DRY(  1, 91)   DRY(  1, 92)   DRY(  1, 93)   DRY(  1, 94)   DRY(  1, 95)   
    DRY(  1, 96)   DRY(  1, 97)   DRY(  1, 98)   DRY(  1, 99)   DRY(  1,100)   
    DRY(  1,101)   DRY(  1,102)   DRY(  1,103)   DRY(  1,104)   DRY(  1,105)   
    DRY(  1,106)   DRY(  1,107)   DRY(  1,108)   DRY(  1,109)   DRY(  1,110)   
    DRY(  1,111)   DRY(  1,112)   DRY(  1,113)   DRY(  1,114)   DRY(  1,115)   
    DRY(  1,116)   DRY(  1,117)   DRY(  1,118)   DRY(  1,119)   DRY(  1,120)   
    DRY(  1,121)   DRY(  1,122)   DRY(  1,123)   DRY(  1,124)   DRY(  1,125)   
    DRY(  1,126)   DRY(  1,127)   DRY(  1,128)   DRY(  1,129)   DRY(  1,130)   
    DRY(  1,131)   DRY(  1,132)   DRY(  1,133)   DRY(  1,134)   DRY(  1,135)   
    DRY(  1,136)   DRY(  1,137)   DRY(  1,138)   DRY(  1,139)   DRY(  1,140)   
    DRY(  1,141)   DRY(  1,142)   DRY(  1,143)   DRY(  1,144)   DRY(  1,145)   
    DRY(  1,146)   DRY(  1,147)   DRY(  1,148)   DRY(  1,149)   DRY(  1,150)   
    DRY(  1,151)   DRY(  1,152)   DRY(  1,153)   DRY(  1,154)   DRY(  1,155)   
    DRY(  1,156)   DRY(  1,157)   DRY(  1,158)   DRY(  1,159)   DRY(  1,160)   
    DRY(  1,161)   DRY(  1,162)   DRY(  1,163)   DRY(  1,164)   DRY(  1,165)   
    DRY(  1,166)   DRY(  1,167)   DRY(  1,168)   DRY(  1,169)   DRY(  1,170)   
    DRY(  1,171)   DRY(  1,172)   DRY(  1,173)   DRY(  1,174)   DRY(  1,175)   
    DRY(  1,176)   DRY(  1,177)   DRY(  1,178)   DRY(  1,179)   DRY(  1,180)   
    DRY(  1,181)   DRY(  1,182)   DRY(  1,183)   DRY(  1,184)   DRY(  1,185)   
    DRY(  1,186)   DRY(  1,187)   DRY(  1,188)   DRY(  1,189)   DRY(  1,190)   
    DRY(  1,191)   DRY(  1,192)   DRY(  1,193)   DRY(  1,194)   DRY(  1,195)   
    DRY(  1,196)   DRY(  1,197)   DRY(  1,198)   DRY(  1,199)   DRY(  1,200)   
    DRY(  1,201)   DRY(  1,202)   DRY(  1,203)   DRY(  1,204)   DRY(  1,205)   
    DRY(  1,206)   DRY(  1,207)   DRY(  1,208)   DRY(  1,209)   DRY(  1,210)   
    DRY(  1,211)   DRY(  1,212)   DRY(  1,213)   DRY(  1,214)   DRY(  1,215)   
    DRY(  1,216)   DRY(  1,217)   DRY(  1,218)   DRY(  1,219)   DRY(  1,220)   
    DRY(  2,  1)   DRY(  2,  2)   DRY(  2,  3)   DRY(  2,  4)   DRY(  2,  5)   
    DRY(  2,  6)   DRY(  2,  7)   DRY(  2,  8)   DRY(  2,  9)   DRY(  2, 10)   
    DRY(  2, 11)   DRY(  2, 12)   DRY(  2, 13)   DRY(  2, 14)   DRY(  2, 15)   
    DRY(  2, 16)   DRY(  2, 17)   DRY(  2, 18)   DRY(  2, 19)   DRY(  2, 20)   
    DRY(  2, 21)   DRY(  2, 22)   DRY(  2, 23)   DRY(  2, 24)   DRY(  2, 25)   
    DRY(  2, 26)   DRY(  2, 27)   DRY(  2, 28)   DRY(  2, 29)   DRY(  2, 30)   
    DRY(  2, 31)   DRY(  2, 32)   DRY(  2, 33)   DRY(  2, 34)   DRY(  2, 35)   
    DRY(  2, 36)   DRY(  2, 37)   DRY(  2, 38)   DRY(  2, 39)   DRY(  2, 40)   
    DRY(  2, 41)   DRY(  2, 42)   DRY(  2, 43)   DRY(  2, 44)   DRY(  2, 45)   
    DRY(  2, 46)   DRY(  2, 47)   DRY(  2, 48)   DRY(  2, 49)   DRY(  2, 50)   
    DRY(  2, 51)   DRY(  2, 52)   DRY(  2, 53)   DRY(  2, 54)   DRY(  2, 55)   
    DRY(  2, 56)   DRY(  2, 57)   DRY(  2, 58)   DRY(  2, 59)   DRY(  2, 60)   
    DRY(  2, 61)   DRY(  2, 62)   DRY(  2, 63)   DRY(  2, 64)   DRY(  2, 65)   
    DRY(  2, 66)   DRY(  2, 67)   DRY(  2, 68)   DRY(  2, 69)   DRY(  2, 70)   
    DRY(  2, 71)   DRY(  2, 72)   DRY(  2, 73)   DRY(  2, 74)   DRY(  2, 75)   
    DRY(  2, 76)   DRY(  2, 77)   DRY(  2, 78)   DRY(  2, 79)   DRY(  2, 80)   
    DRY(  2, 81)   DRY(  2, 82)   DRY(  2, 83)   DRY(  2, 84)   DRY(  2, 85)   
    DRY(  2, 86)   DRY(  2, 87)   DRY(  2, 88)   DRY(  2, 89)   DRY(  2, 90)   
    DRY(  2, 91)   DRY(  2, 92)   DRY(  2, 93)   DRY(  2, 94)   DRY(  2, 95)   
    DRY(  2, 96)   DRY(  2, 97)   DRY(  2, 98)   DRY(  2, 99)   DRY(  2,100)   
    DRY(  2,101)   DRY(  2,102)   DRY(  2,103)   DRY(  2,104)   DRY(  2,105)   
    DRY(  2,106)   DRY(  2,107)   DRY(  2,108)   DRY(  2,109)   DRY(  2,110)   
    DRY(  2,111)   DRY(  2,112)   DRY(  2,113)   DRY(  2,114)   DRY(  2,115)   
    DRY(  2,116)   DRY(  2,117)   DRY(  2,118)   DRY(  2,119)   DRY(  2,120)   
    DRY(  2,121)   DRY(  2,122)   DRY(  2,123)   DRY(  2,124)   DRY(  2,125)   
    DRY(  2,126)   DRY(  2,127)   DRY(  2,128)   DRY(  2,129)   DRY(  2,130)   
    DRY(  2,131)   DRY(  2,132)   DRY(  2,133)   DRY(  2,134)   DRY(  2,135)   
    DRY(  2,136)   DRY(  2,137)   DRY(  2,138)   DRY(  2,139)   DRY(  2,140)   
    DRY(  2,141)   DRY(  2,142)   DRY(  2,143)   DRY(  2,144)   DRY(  2,145)   
    DRY(  2,146)   DRY(  2,147)   DRY(  2,148)   DRY(  2,149)   DRY(  2,150)   
    DRY(  2,151)   DRY(  2,152)   DRY(  2,153)   DRY(  2,154)   DRY(  2,155)   
    DRY(  2,156)   DRY(  2,157)   DRY(  2,158)   DRY(  2,159)   DRY(  2,160)   
    DRY(  2,161)   DRY(  2,162)   DRY(  2,163)   DRY(  2,164)   DRY(  2,165)   
    DRY(  2,166)   DRY(  2,167)   DRY(  2,168)   DRY(  2,169)   DRY(  2,170)   
    DRY(  2,171)   DRY(  2,172)   DRY(  2,173)   DRY(  2,174)   DRY(  2,175)   
    DRY(  2,176)   DRY(  2,177)   DRY(  2,178)   DRY(  2,179)   DRY(  2,180)   
    DRY(  2,181)   DRY(  2,182)   DRY(  2,183)   DRY(  2,184)   DRY(  2,185)   
    DRY(  2,186)   DRY(  2,187)   DRY(  2,188)   DRY(  2,189)   DRY(  2,190)   
    DRY(  2,191)   DRY(  2,192)   DRY(  2,193)   DRY(  2,194)   DRY(  2,195)   
    DRY(  2,196)   DRY(  2,197)   DRY(  2,198)   DRY(  2,199)   DRY(  2,200)   
    DRY(  2,201)   DRY(  2,202)   DRY(  2,203)   DRY(  2,204)   DRY(  2,205)   
    DRY(  2,206)   DRY(  2,207)   DRY(  2,208)   DRY(  2,209)   DRY(  2,210)   
    DRY(  2,211)   DRY(  2,212)   DRY(  2,213)   DRY(  2,214)   DRY(  2,215)   
    DRY(  2,216)   DRY(  2,217)   DRY(  2,218)   DRY(  2,219)   DRY(  2,220)   

 CELL CONVERSIONS FOR ITER.=  1  LAYER=  3  STEP=  1  PERIOD=   1   (ROW,COL)
    DRY(  1,  1)   DRY(  1,  2)   DRY(  1,  3)   DRY(  1,  4)   DRY(  1,  5)   
    DRY(  1,  6)   DRY(  1,  7)   DRY(  1,  8)   DRY(  1,  9)   DRY(  1, 10)   
    DRY(  1, 11)   DRY(  1, 12)   DRY(  1, 13)   DRY(  1, 14)   DRY(  1, 15)   
    DRY(  1, 16)   DRY(  1, 17)   DRY(  1, 18)   DRY(  1, 19)   DRY(  1, 20)   
    DRY(  1, 21)   DRY(  1, 22)   DRY(  1, 23)   DRY(  1, 24)   DRY(  1, 25)   
    DRY(  1, 26)   DRY(  1, 27)   DRY(  1, 28)   DRY(  1, 29)   DRY(  1, 30)   
    DRY(  1, 31)   DRY(  1, 32)   DRY(  1, 33)   DRY(  1, 34)   DRY(  1, 35)   
    DRY(  1, 36)   DRY(  1, 37)   DRY(  1, 38)   DRY(  1, 39)   DRY(  1, 40)   
    DRY(  1, 41)   DRY(  1, 42)   DRY(  1, 43)   DRY(  1, 44)   DRY(  1, 45)   
    DRY(  1, 46)   DRY(  1, 47)   DRY(  1, 48)   DRY(  1, 49)   DRY(  1, 50)   
    DRY(  1, 51)   DRY(  1, 52)   DRY(  1, 53)   DRY(  1, 54)   DRY(  1, 55)   
    DRY(  1, 56)   DRY(  1, 57)   DRY(  1, 58)   DRY(  1, 59)   DRY(  1, 60)   
    DRY(  1, 61)   DRY(  1, 62)   DRY(  1, 63)   DRY(  1, 64)   DRY(  1, 65)   
    DRY(  1, 66)   DRY(  1, 67)   DRY(  1, 68)   DRY(  1, 69)   DRY(  1, 70)   
    DRY(  1, 71)   DRY(  1, 72)   DRY(  1, 73)   DRY(  1, 74)   DRY(  1, 75)   
    DRY(  1, 76)   DRY(  1, 77)   DRY(  1, 78)   DRY(  1, 79)   DRY(  1, 80)   
    DRY(  1, 81)   DRY(  1, 82)   DRY(  1, 83)   DRY(  1, 84)   DRY(  1, 85)   
    DRY(  1, 86)   DRY(  1, 87)   DRY(  1, 88)   DRY(  1, 89)   DRY(  1, 90)   
    DRY(  1, 91)   DRY(  1, 92)   DRY(  1, 93)   DRY(  1, 94)   DRY(  1, 95)   
    DRY(  1, 96)   DRY(  1, 97)   DRY(  1, 98)   DRY(  1, 99)   DRY(  1,100)   
    DRY(  1,101)   DRY(  1,102)   DRY(  1,103)   DRY(  1,104)   DRY(  1,105)   
    DRY(  1,106)   DRY(  1,107)   DRY(  1,108)   DRY(  1,109)   DRY(  1,110)   
    DRY(  1,111)   DRY(  1,112)   DRY(  1,113)   DRY(  1,114)   DRY(  1,115)   
    DRY(  1,116)   DRY(  1,117)   DRY(  1,118)   DRY(  1,119)   DRY(  1,120)   
    DRY(  1,121)   DRY(  1,122)   DRY(  1,123)   DRY(  1,124)   DRY(  1,125)   
    DRY(  1,126)   DRY(  1,127)   DRY(  1,128)   DRY(  1,129)   DRY(  1,130)   
    DRY(  1,131)   DRY(  1,132)   DRY(  1,133)   DRY(  1,134)   DRY(  1,135)   
    DRY(  1,136)   DRY(  1,137)   DRY(  1,138)   DRY(  1,139)   DRY(  1,140)   
    DRY(  1,141)   DRY(  1,142)   DRY(  1,143)   DRY(  1,144)   DRY(  1,145)   
    DRY(  1,146)   DRY(  1,147)   DRY(  1,148)   DRY(  1,149)   DRY(  1,150)   
    DRY(  1,151)   DRY(  1,152)   DRY(  1,153)   DRY(  1,154)   DRY(  1,155)   
    DRY(  1,156)   DRY(  1,157)   DRY(  1,158)   DRY(  1,159)   DRY(  1,160)   
    DRY(  1,161)   DRY(  1,162)   DRY(  1,163)   DRY(  1,164)   DRY(  1,165)   
    DRY(  1,166)   DRY(  1,167)   DRY(  1,168)   DRY(  1,169)   DRY(  1,170)   
    DRY(  1,171)   DRY(  1,172)   DRY(  1,173)   DRY(  1,174)   DRY(  1,175)   
    DRY(  1,176)   DRY(  1,177)   DRY(  1,178)   DRY(  1,179)   DRY(  1,180)   
    DRY(  1,181)   DRY(  1,182)   DRY(  1,183)   DRY(  1,184)   DRY(  1,185)   
    DRY(  1,186)   DRY(  1,187)   DRY(  1,188)   DRY(  1,189)   DRY(  1,190)   
    DRY(  1,191)   DRY(  1,192)   DRY(  1,193)   DRY(  1,194)   DRY(  1,195)   
    DRY(  1,196)   DRY(  1,197)   DRY(  1,198)   DRY(  1,199)   DRY(  1,200)   
    DRY(  1,201)   DRY(  1,202)   DRY(  1,203)   DRY(  1,204)   DRY(  1,205)   
    DRY(  1,206)   DRY(  1,207)   DRY(  1,208)   DRY(  1,209)   DRY(  1,210)   
    DRY(  1,211)   DRY(  1,212)   DRY(  1,213)   DRY(  1,214)   DRY(  1,215)   
    DRY(  1,216)   DRY(  1,217)   DRY(  1,218)   DRY(  1,219)   DRY(  1,220)   
    DRY(  2,  1)   DRY(  2,  2)   DRY(  2,  3)   DRY(  2,  4)   DRY(  2,  5)   
    DRY(  2,  6)   DRY(  2,  7)   DRY(  2,  8)   DRY(  2,  9)   DRY(  2, 10)   
    DRY(  2, 11)   DRY(  2, 12)   DRY(  2, 13)   DRY(  2, 14)   DRY(  2, 15)   
    DRY(  2, 16)   DRY(  2, 17)   DRY(  2, 18)   DRY(  2, 19)   DRY(  2, 20)   
    DRY(  2, 21)   DRY(  2, 22)   DRY(  2, 23)   DRY(  2, 24)   DRY(  2, 25)   
    DRY(  2, 26)   DRY(  2, 27)   DRY(  2, 28)   DRY(  2, 29)   DRY(  2, 30)   
    DRY(  2, 31)   DRY(  2, 32)   DRY(  2, 33)   DRY(  2, 34)   DRY(  2, 35)   
    DRY(  2, 36)   DRY(  2, 37)   DRY(  2, 38)   DRY(  2, 39)   DRY(  2, 40)   
    DRY(  2, 41)   DRY(  2, 42)   DRY(  2, 43)   DRY(  2, 44)   DRY(  2, 45)   
    DRY(  2, 46)   DRY(  2, 47)   DRY(  2, 48)   DRY(  2, 49)   DRY(  2, 50)   
    DRY(  2, 51)   DRY(  2, 52)   DRY(  2, 53)   DRY(  2, 54)   DRY(  2, 55)   
    DRY(  2, 56)   DRY(  2, 57)   DRY(  2, 58)   DRY(  2, 59)   DRY(  2, 60)   
    DRY(  2, 61)   DRY(  2, 62)   DRY(  2, 63)   DRY(  2, 64)   DRY(  2, 65)   
    DRY(  2, 66)   DRY(  2, 67)   DRY(  2, 68)   DRY(  2, 69)   DRY(  2, 70)   
    DRY(  2, 71)   DRY(  2, 72)   DRY(  2, 73)   DRY(  2, 74)   DRY(  2, 75)   
    DRY(  2, 76)   DRY(  2, 77)   DRY(  2, 78)   DRY(  2, 79)   DRY(  2, 80)   
    DRY(  2, 81)   DRY(  2, 82)   DRY(  2, 83)   DRY(  2, 84)   DRY(  2, 85)   
    DRY(  2, 86)   DRY(  2, 87)   DRY(  2, 88)   DRY(  2, 89)   DRY(  2, 90)   
    DRY(  2, 91)   DRY(  2, 92)   DRY(  2, 93)   DRY(  2, 94)   DRY(  2, 95)   
    DRY(  2, 96)   DRY(  2, 97)   DRY(  2, 98)   DRY(  2, 99)   DRY(  2,100)   
    DRY(  2,101)   DRY(  2,102)   DRY(  2,103)   DRY(  2,104)   DRY(  2,105)   
    DRY(  2,106)   DRY(  2,107)   DRY(  2,108)   DRY(  2,109)   DRY(  2,110)   
    DRY(  2,111)   DRY(  2,112)   DRY(  2,113)   DRY(  2,114)   DRY(  2,115)   
    DRY(  2,116)   DRY(  2,117)   DRY(  2,118)   DRY(  2,119)   DRY(  2,120)   
    DRY(  2,121)   DRY(  2,122)   DRY(  2,123)   DRY(  2,124)   DRY(  2,125)   
    DRY(  2,126)   DRY(  2,127)   DRY(  2,128)   DRY(  2,129)   DRY(  2,130)   
    DRY(  2,131)   DRY(  2,132)   DRY(  2,133)   DRY(  2,134)   DRY(  2,135)   
    DRY(  2,136)   DRY(  2,137)   DRY(  2,138)   DRY(  2,139)   DRY(  2,140)   
    DRY(  2,141)   DRY(  2,142)   DRY(  2,143)   DRY(  2,144)   DRY(  2,145)   
    DRY(  2,146)   DRY(  2,147)   DRY(  2,148)   DRY(  2,149)   DRY(  2,150)   
    DRY(  2,151)   DRY(  2,152)   DRY(  2,153)   DRY(  2,154)   DRY(  2,155)   
    DRY(  2,156)   DRY(  2,157)   DRY(  2,158)   DRY(  2,159)   DRY(  2,160)   
    DRY(  2,161)   DRY(  2,162)   DRY(  2,163)   DRY(  2,164)   DRY(  2,165)   
    DRY(  2,166)   DRY(  2,167)   DRY(  2,168)   DRY(  2,169)   DRY(  2,170)   
    DRY(  2,171)   DRY(  2,172)   DRY(  2,173)   DRY(  2,174)   DRY(  2,175)   
    DRY(  2,176)   DRY(  2,177)   DRY(  2,178)   DRY(  2,179)   DRY(  2,180)   
    DRY(  2,181)   DRY(  2,182)   DRY(  2,183)   DRY(  2,184)   DRY(  2,185)   
    DRY(  2,186)   DRY(  2,187)   DRY(  2,188)   DRY(  2,189)   DRY(  2,190)   
    DRY(  2,191)   DRY(  2,192)   DRY(  2,193)   DRY(  2,194)   DRY(  2,195)   
    DRY(  2,196)   DRY(  2,197)   DRY(  2,198)   DRY(  2,199)   DRY(  2,200)   
    DRY(  2,201)   DRY(  2,202)   DRY(  2,203)   DRY(  2,204)   DRY(  2,205)   
    DRY(  2,206)   DRY(  2,207)   DRY(  2,208)   DRY(  2,209)   DRY(  2,210)   
    DRY(  2,211)   DRY(  2,212)   DRY(  2,213)   DRY(  2,214)   DRY(  2,215)   
    DRY(  2,216)   DRY(  2,217)   DRY(  2,218)   DRY(  2,219)   DRY(  2,220)   

 CELL CONVERSIONS FOR ITER.=  1  LAYER=  4  STEP=  1  PERIOD=   1   (ROW,COL)
    DRY(  1,  1)   DRY(  1,  2)   DRY(  1,  3)   DRY(  1,  4)   DRY(  1,  5)   
    DRY(  1,  6)   DRY(  1,  7)   DRY(  1,  8)   DRY(  1,  9)   DRY(  1, 10)   
    DRY(  1, 11)   DRY(  1, 12)   DRY(  1, 13)   DRY(  1, 14)   DRY(  1, 15)   
    DRY(  1, 16)   DRY(  1, 17)   DRY(  1, 18)   DRY(  1, 19)   DRY(  1, 20)   
    DRY(  1, 21)   DRY(  1, 22)   DRY(  1, 23)   DRY(  1, 24)   DRY(  1, 25)   
    DRY(  1, 26)   DRY(  1, 27)   DRY(  1, 28)   DRY(  1, 29)   DRY(  1, 30)   
    DRY(  1, 31)   DRY(  1, 32)   DRY(  1, 33)   DRY(  1, 34)   DRY(  1, 35)   
    DRY(  1, 36)   DRY(  1, 37)   DRY(  1, 38)   DRY(  1, 39)   DRY(  1, 40)   
    DRY(  1, 41)   DRY(  1, 42)   DRY(  1, 43)   DRY(  1, 44)   DRY(  1, 45)   
    DRY(  1, 46)   DRY(  1, 47)   DRY(  1, 48)   DRY(  1, 49)   DRY(  1, 50)   
    DRY(  1, 51)   DRY(  1, 52)   DRY(  1, 53)   DRY(  1, 54)   DRY(  1, 55)   
    DRY(  1, 56)   DRY(  1, 57)   DRY(  1, 58)   DRY(  1, 59)   DRY(  1, 60)   
    DRY(  1, 61)   DRY(  1, 62)   DRY(  1, 63)   DRY(  1, 64)   DRY(  1, 65)   
    DRY(  1, 66)   DRY(  1, 67)   DRY(  1, 68)   DRY(  1, 69)   DRY(  1, 70)   
    DRY(  1, 71)   DRY(  1, 72)   DRY(  1, 73)   DRY(  1, 74)   DRY(  1, 75)   
    DRY(  1, 76)   DRY(  1, 77)   DRY(  1, 78)   DRY(  1, 79)   DRY(  1, 80)   
    DRY(  1, 81)   DRY(  1, 82)   DRY(  1, 83)   DRY(  1, 84)   DRY(  1, 85)   
    DRY(  1, 86)   DRY(  1, 87)   DRY(  1, 88)   DRY(  1, 89)   DRY(  1, 90)   
    DRY(  1, 91)   DRY(  1, 92)   DRY(  1, 93)   DRY(  1, 94)   DRY(  1, 95)   
    DRY(  1, 96)   DRY(  1, 97)   DRY(  1, 98)   DRY(  1, 99)   DRY(  1,100)   
    DRY(  1,101)   DRY(  1,102)   DRY(  1,103)   DRY(  1,104)   DRY(  1,105)   
    DRY(  1,106)   DRY(  1,107)   DRY(  1,108)   DRY(  1,109)   DRY(  1,110)   
    DRY(  1,111)   DRY(  1,112)   DRY(  1,113)   DRY(  1,114)   DRY(  1,115)   
    DRY(  1,116)   DRY(  1,117)   DRY(  1,118)   DRY(  1,119)   DRY(  1,120)   
    DRY(  1,121)   DRY(  1,122)   DRY(  1,123)   DRY(  1,124)   DRY(  1,125)   
    DRY(  1,126)   DRY(  1,127)   DRY(  1,128)   DRY(  1,129)   DRY(  1,130)   
    DRY(  1,131)   DRY(  1,132)   DRY(  1,133)   DRY(  1,134)   DRY(  1,135)   
    DRY(  1,136)   DRY(  1,137)   DRY(  1,138)   DRY(  1,139)   DRY(  1,140)   
    DRY(  1,141)   DRY(  1,142)   DRY(  1,143)   DRY(  1,144)   DRY(  1,145)   
    DRY(  1,146)   DRY(  1,147)   DRY(  1,148)   DRY(  1,149)   DRY(  1,150)   
    DRY(  1,151)   DRY(  1,152)   DRY(  1,153)   DRY(  1,154)   DRY(  1,155)   
    DRY(  1,156)   DRY(  1,157)   DRY(  1,158)   DRY(  1,159)   DRY(  1,160)   
    DRY(  1,161)   DRY(  1,162)   DRY(  1,163)   DRY(  1,164)   DRY(  1,165)   
    DRY(  1,166)   DRY(  1,167)   DRY(  1,168)   DRY(  1,169)   DRY(  1,170)   
    DRY(  1,171)   DRY(  1,172)   DRY(  1,173)   DRY(  1,174)   DRY(  1,175)   
    DRY(  1,176)   DRY(  1,177)   DRY(  1,178)   DRY(  1,179)   DRY(  1,180)   
    DRY(  1,181)   DRY(  1,182)   DRY(  1,183)   DRY(  1,184)   DRY(  1,185)   
    DRY(  1,186)   DRY(  1,187)   DRY(  1,188)   DRY(  1,189)   DRY(  1,190)   
    DRY(  1,191)   DRY(  1,192)   DRY(  1,193)   DRY(  1,194)   DRY(  1,195)   
    DRY(  1,196)   DRY(  1,197)   DRY(  1,198)   DRY(  1,199)   DRY(  1,200)   
    DRY(  1,201)   DRY(  1,202)   DRY(  1,203)   DRY(  1,204)   DRY(  1,205)   
    DRY(  1,206)   DRY(  1,207)   DRY(  1,208)   DRY(  1,209)   DRY(  1,210)   
    DRY(  1,211)   DRY(  1,212)   DRY(  1,213)   DRY(  1,214)   DRY(  1,215)   
    DRY(  1,216)   DRY(  1,217)   DRY(  1,218)   DRY(  1,219)   DRY(  1,220)   
    DRY(  2,  1)   DRY(  2,  2)   DRY(  2,  3)   DRY(  2,  4)   DRY(  2,  5)   
    DRY(  2,  6)   DRY(  2,  7)   DRY(  2,  8)   DRY(  2,  9)   DRY(  2, 10)   
    DRY(  2, 11)   DRY(  2, 12)   DRY(  2, 13)   DRY(  2, 14)   DRY(  2, 15)   
    DRY(  2, 16)   DRY(  2, 17)   DRY(  2, 18)   DRY(  2, 19)   DRY(  2, 20)   
    DRY(  2, 21)   DRY(  2, 22)   DRY(  2, 23)   DRY(  2, 24)   DRY(  2, 25)   
    DRY(  2, 26)   DRY(  2, 27)   DRY(  2, 28)   DRY(  2, 29)   DRY(  2, 30)   
    DRY(  2, 31)   DRY(  2, 32)   DRY(  2, 33)   DRY(  2, 34)   DRY(  2, 35)   
    DRY(  2, 36)   DRY(  2, 37)   DRY(  2, 38)   DRY(  2, 39)   DRY(  2, 40)   
    DRY(  2, 41)   DRY(  2, 42)   DRY(  2, 43)   DRY(  2, 44)   DRY(  2, 45)   
    DRY(  2, 46)   DRY(  2, 47)   DRY(  2, 48)   DRY(  2, 49)   DRY(  2, 50)   
    DRY(  2, 51)   DRY(  2, 52)   DRY(  2, 53)   DRY(  2, 54)   DRY(  2, 55)   
    DRY(  2, 56)   DRY(  2, 57)   DRY(  2, 58)   DRY(  2, 59)   DRY(  2, 60)   
    DRY(  2, 61)   DRY(  2, 62)   DRY(  2, 63)   DRY(  2, 64)   DRY(  2, 65)   
    DRY(  2, 66)   DRY(  2, 67)   DRY(  2, 68)   DRY(  2, 69)   DRY(  2, 70)   
    DRY(  2, 71)   DRY(  2, 72)   DRY(  2, 73)   DRY(  2, 74)   DRY(  2, 75)   
    DRY(  2, 76)   DRY(  2, 77)   DRY(  2, 78)   DRY(  2, 79)   DRY(  2, 80)   
    DRY(  2, 81)   DRY(  2, 82)   DRY(  2, 83)   DRY(  2, 84)   DRY(  2, 85)   
    DRY(  2, 86)   DRY(  2, 87)   DRY(  2, 88)   DRY(  2, 89)   DRY(  2, 90)   
    DRY(  2, 91)   DRY(  2, 92)   DRY(  2, 93)   DRY(  2, 94)   DRY(  2, 95)   
    DRY(  2, 96)   DRY(  2, 97)   DRY(  2, 98)   DRY(  2, 99)   DRY(  2,100)   
    DRY(  2,101)   DRY(  2,102)   DRY(  2,103)   DRY(  2,104)   DRY(  2,105)   
    DRY(  2,106)   DRY(  2,107)   DRY(  2,108)   DRY(  2,109)   DRY(  2,110)   
    DRY(  2,111)   DRY(  2,112)   DRY(  2,113)   DRY(  2,114)   DRY(  2,115)   
    DRY(  2,116)   DRY(  2,117)   DRY(  2,118)   DRY(  2,119)   DRY(  2,120)   
    DRY(  2,121)   DRY(  2,122)   DRY(  2,123)   DRY(  2,124)   DRY(  2,125)   
    DRY(  2,126)   DRY(  2,127)   DRY(  2,128)   DRY(  2,129)   DRY(  2,130)   
    DRY(  2,131)   DRY(  2,132)   DRY(  2,133)   DRY(  2,134)   DRY(  2,135)   
    DRY(  2,136)   DRY(  2,137)   DRY(  2,138)   DRY(  2,139)   DRY(  2,140)   
    DRY(  2,141)   DRY(  2,142)   DRY(  2,143)   DRY(  2,144)   DRY(  2,145)   
    DRY(  2,146)   DRY(  2,147)   DRY(  2,148)   DRY(  2,149)   DRY(  2,150)   
    DRY(  2,151)   DRY(  2,152)   DRY(  2,153)   DRY(  2,154)   DRY(  2,155)   
    DRY(  2,156)   DRY(  2,157)   DRY(  2,158)   DRY(  2,159)   DRY(  2,160)   
    DRY(  2,161)   DRY(  2,162)   DRY(  2,163)   DRY(  2,164)   DRY(  2,165)   
    DRY(  2,166)   DRY(  2,167)   DRY(  2,168)   DRY(  2,169)   DRY(  2,170)   
    DRY(  2,171)   DRY(  2,172)   DRY(  2,173)   DRY(  2,174)   DRY(  2,175)   
    DRY(  2,176)   DRY(  2,177)   DRY(  2,178)   DRY(  2,179)   DRY(  2,180)   
    DRY(  2,181)   DRY(  2,182)   DRY(  2,183)   DRY(  2,184)   DRY(  2,185)   
    DRY(  2,186)   DRY(  2,187)   DRY(  2,188)   DRY(  2,189)   DRY(  2,190)   
    DRY(  2,191)   DRY(  2,192)   DRY(  2,193)   DRY(  2,194)   DRY(  2,195)   
    DRY(  2,196)   DRY(  2,197)   DRY(  2,198)   DRY(  2,199)   DRY(  2,200)   
    DRY(  2,201)   DRY(  2,202)   DRY(  2,203)   DRY(  2,204)   DRY(  2,205)   
    DRY(  2,206)   DRY(  2,207)   DRY(  2,208)   DRY(  2,209)   DRY(  2,210)   
    DRY(  2,211)   DRY(  2,212)   DRY(  2,213)   DRY(  2,214)   DRY(  2,215)   
    DRY(  2,216)   DRY(  2,217)   DRY(  2,218)   DRY(  2,219)   DRY(  2,220)   

 CELL CONVERSIONS FOR ITER.=  2  LAYER=  1  STEP=  1  PERIOD=   1   (ROW,COL)
    DRY(  3,  1)   DRY(  3,  2)   DRY(  3,  3)   DRY(  3,  4)   DRY(  3,  5)   
    DRY(  3,  6)   DRY(  3,  7)   DRY(  3,  8)   DRY(  3,  9)   DRY(  3, 10)   
    DRY(  3, 11)   DRY(  3, 12)   DRY(  3, 13)   DRY(  3, 14)   DRY(  3, 15)   
    DRY(  3, 16)   DRY(  3, 17)   DRY(  3, 18)   DRY(  3, 19)   DRY(  3, 20)   
    DRY(  3, 21)   DRY(  3, 22)   DRY(  3, 23)   DRY(  3, 24)   DRY(  3, 25)   
    DRY(  3, 26)   DRY(  3, 27)   DRY(  3, 28)   DRY(  3, 29)   DRY(  3, 30)   
    DRY(  3, 31)   DRY(  3, 32)   DRY(  3, 33)   DRY(  3, 34)   DRY(  3, 35)   
    DRY(  3, 36)   DRY(  3, 37)   DRY(  3, 38)   DRY(  3, 39)   DRY(  3, 40)   
    DRY(  3, 41)   DRY(  3, 42)   DRY(  3, 43)   DRY(  3, 44)   DRY(  3, 45)   
    DRY(  3, 46)   DRY(  3, 47)   DRY(  3, 48)   DRY(  3, 49)   DRY(  3, 50)   
    DRY(  3, 51)   DRY(  3, 52)   DRY(  3, 53)   DRY(  3, 54)   DRY(  3, 55)   
    DRY(  3, 56)   DRY(  3, 57)   DRY(  3, 58)   DRY(  3, 59)   DRY(  3, 60)   
    DRY(  3, 61)   DRY(  3, 62)   DRY(  3, 63)   DRY(  3, 64)   DRY(  3, 65)   
    DRY(  3, 66)   DRY(  3, 67)   DRY(  3, 68)   DRY(  3, 69)   DRY(  3, 70)   
    DRY(  3, 71)   DRY(  3, 72)   DRY(  3, 73)   DRY(  3, 74)   DRY(  3, 75)   
    DRY(  3, 76)   DRY(  3, 77)   DRY(  3, 78)   DRY(  3, 79)   DRY(  3, 80)   
    DRY(  3, 81)   DRY(  3, 82)   DRY(  3, 83)   DRY(  3, 84)   DRY(  3, 85)   
    DRY(  3, 86)   DRY(  3, 87)   DRY(  3, 88)   DRY(  3, 89)   DRY(  3, 90)   
    DRY(  3, 91)   DRY(  3, 92)   DRY(  3, 93)   DRY(  3, 94)   DRY(  3, 95)   
    DRY(  3, 96)   DRY(  3, 97)   DRY(  3, 98)   DRY(  3, 99)   DRY(  3,100)   
    DRY(  3,101)   DRY(  3,102)   DRY(  3,103)   DRY(  3,104)   DRY(  3,105)   
    DRY(  3,106)   DRY(  3,107)   DRY(  3,108)   DRY(  3,109)   DRY(  3,110)   
    DRY(  3,111)   DRY(  3,112)   DRY(  3,113)   DRY(  3,114)   DRY(  3,115)   
    DRY(  3,116)   DRY(  3,117)   DRY(  3,118)   DRY(  3,119)   DRY(  3,120)   
    DRY(  3,121)   DRY(  3,122)   DRY(  3,123)   DRY(  3,124)   DRY(  3,125)   
    DRY(  3,126)   DRY(  3,127)   DRY(  3,128)   DRY(  3,129)   DRY(  3,130)   
    DRY(  3,131)   DRY(  3,132)   DRY(  3,133)   DRY(  3,134)   DRY(  3,135)   
    DRY(  3,136)   DRY(  3,137)   DRY(  3,138)   DRY(  3,139)   DRY(  3,140)   
    DRY(  3,141)   DRY(  3,142)   DRY(  3,143)   DRY(  3,144)   DRY(  3,145)   
    DRY(  3,146)   DRY(  3,147)   DRY(  3,148)   DRY(  3,149)   DRY(  3,150)   
    DRY(  3,151)   DRY(  3,152)   DRY(  3,153)   DRY(  3,154)   DRY(  3,155)   
    DRY(  3,156)   DRY(  3,157)   DRY(  3,158)   DRY(  3,159)   DRY(  3,160)   
    DRY(  3,161)   DRY(  3,162)   DRY(  3,163)   DRY(  3,164)   DRY(  3,165)   
    DRY(  3,166)   DRY(  3,167)   DRY(  3,168)   DRY(  3,169)   DRY(  3,170)   
    DRY(  3,171)   DRY(  3,172)   DRY(  3,173)   DRY(  3,174)   DRY(  3,175)   
    DRY(  3,176)   DRY(  3,177)   DRY(  3,178)   DRY(  3,179)   DRY(  3,180)   
    DRY(  3,181)   DRY(  3,182)   DRY(  3,183)   DRY(  3,184)   DRY(  3,185)   
    DRY(  3,186)   DRY(  3,187)   DRY(  3,188)   DRY(  3,189)   DRY(  3,190)   
    DRY(  3,191)   DRY(  3,192)   DRY(  3,193)   DRY(  3,194)   DRY(  3,195)   
    DRY(  3,196)   DRY(  3,197)   DRY(  3,198)   DRY(  3,199)   DRY(  3,200)   
    DRY(  3,201)   DRY(  3,202)   DRY(  3,203)   DRY(  3,204)   DRY(  3,205)   
    DRY(  3,206)   DRY(  3,207)   DRY(  3,208)   DRY(  3,209)   DRY(  3,210)   
    DRY(  3,211)   DRY(  3,212)   DRY(  3,213)   DRY(  3,214)   DRY(  3,215)   
    DRY(  3,216)   DRY(  3,217)   DRY(  3,218)   DRY(  3,219)   DRY(  3,220)   
    DRY(  4,  1)   DRY(  4,  2)   DRY(  4,  3)   DRY(  4,  4)   DRY(  4,  5)   
    DRY(  4,  6)   DRY(  4,  7)   DRY(  4,  8)   DRY(  4,  9)   DRY(  4, 10)   
    DRY(  4, 11)   DRY(  4, 12)   DRY(  4, 13)   DRY(  4, 14)   DRY(  4, 15)   
    DRY(  4, 16)   DRY(  4, 17)   DRY(  4, 18)   DRY(  4, 19)   DRY(  4, 20)   
    DRY(  4, 21)   DRY(  4, 22)   DRY(  4, 23)   DRY(  4, 24)   DRY(  4, 25)   
    DRY(  4, 26)   DRY(  4, 27)   DRY(  4, 28)   DRY(  4, 29)   DRY(  4, 30)   
    DRY(  4, 31)   DRY(  4, 32)   DRY(  4, 33)   DRY(  4, 34)   DRY(  4, 35)   
    DRY(  4, 36)   DRY(  4, 37)   DRY(  4, 38)   DRY(  4, 39)   DRY(  4, 40)   
    DRY(  4, 41)   DRY(  4, 42)   DRY(  4, 43)   DRY(  4, 44)   DRY(  4, 45)   
    DRY(  4, 46)   DRY(  4, 47)   DRY(  4, 48)   DRY(  4, 49)   DRY(  4, 50)   
    DRY(  4, 51)   DRY(  4, 52)   DRY(  4, 53)   DRY(  4, 54)   DRY(  4, 55)   
    DRY(  4, 56)   DRY(  4, 57)   DRY(  4, 58)   DRY(  4, 59)   DRY(  4, 60)   
    DRY(  4, 61)   DRY(  4, 62)   DRY(  4, 63)   DRY(  4, 64)   DRY(  4, 65)   
    DRY(  4, 66)   DRY(  4, 67)   DRY(  4, 68)   DRY(  4, 69)   DRY(  4, 70)   
    DRY(  4, 71)   DRY(  4, 72)   DRY(  4, 73)   DRY(  4, 74)   DRY(  4, 75)   
    DRY(  4, 76)   DRY(  4, 77)   DRY(  4, 78)   DRY(  4, 79)   DRY(  4, 80)   
    DRY(  4, 81)   DRY(  4, 82)   DRY(  4, 83)   DRY(  4, 84)   DRY(  4, 85)   
    DRY(  4, 86)   DRY(  4, 87)   DRY(  4, 88)   DRY(  4, 89)   DRY(  4, 90)   
    DRY(  4, 91)   DRY(  4, 92)   DRY(  4, 93)   DRY(  4, 94)   DRY(  4, 95)   
    DRY(  4, 96)   DRY(  4, 97)   DRY(  4, 98)   DRY(  4, 99)   DRY(  4,100)   
    DRY(  4,101)   DRY(  4,102)   DRY(  4,103)   DRY(  4,104)   DRY(  4,105)   
    DRY(  4,106)   DRY(  4,107)   DRY(  4,108)   DRY(  4,109)   DRY(  4,110)   
    DRY(  4,111)   DRY(  4,112)   DRY(  4,113)   DRY(  4,114)   DRY(  4,115)   
    DRY(  4,116)   DRY(  4,117)   DRY(  4,118)   DRY(  4,119)   DRY(  4,120)   
    DRY(  4,121)   DRY(  4,122)   DRY(  4,123)   DRY(  4,124)   DRY(  4,125)   
    DRY(  4,126)   DRY(  4,127)   DRY(  4,128)   DRY(  4,129)   DRY(  4,130)   
    DRY(  4,131)   DRY(  4,132)   DRY(  4,133)   DRY(  4,134)   DRY(  4,135)   
    DRY(  4,136)   DRY(  4,137)   DRY(  4,138)   DRY(  4,139)   DRY(  4,140)   
    DRY(  4,141)   DRY(  4,142)   DRY(  4,143)   DRY(  4,144)   DRY(  4,145)   
    DRY(  4,146)   DRY(  4,147)   DRY(  4,148)   DRY(  4,149)   DRY(  4,150)   
    DRY(  4,151)   DRY(  4,152)   DRY(  4,153)   DRY(  4,154)   DRY(  4,155)   
    DRY(  4,156)   DRY(  4,157)   DRY(  4,158)   DRY(  4,159)   DRY(  4,160)   
    DRY(  4,161)   DRY(  4,162)   DRY(  4,163)   DRY(  4,164)   DRY(  4,165)   
    DRY(  4,166)   DRY(  4,167)   DRY(  4,168)   DRY(  4,169)   DRY(  4,170)   
    DRY(  4,171)   DRY(  4,172)   DRY(  4,173)   DRY(  4,174)   DRY(  4,175)   
    DRY(  4,176)   DRY(  4,177)   DRY(  4,178)   DRY(  4,179)   DRY(  4,180)   
    DRY(  4,181)   DRY(  4,182)   DRY(  4,183)   DRY(  4,184)   DRY(  4,185)   
    DRY(  4,186)   DRY(  4,187)   DRY(  4,188)   DRY(  4,189)   DRY(  4,190)   
    DRY(  4,191)   DRY(  4,192)   DRY(  4,193)   DRY(  4,194)   DRY(  4,195)   
    DRY(  4,196)   DRY(  4,197)   DRY(  4,198)   DRY(  4,199)   DRY(  4,200)   
    DRY(  4,201)   DRY(  4,202)   DRY(  4,203)   DRY(  4,204)   DRY(  4,205)   
    DRY(  4,206)   DRY(  4,207)   DRY(  4,208)   DRY(  4,209)   DRY(  4,210)   
    DRY(  4,211)   DRY(  4,212)   DRY(  4,213)   DRY(  4,214)   DRY(  4,215)   
    DRY(  4,216)   DRY(  4,217)   DRY(  4,218)   DRY(  4,219)   DRY(  4,220)   
    DRY(  5,  1)   DRY(  5,  2)   DRY(  5,  3)   DRY(  5,  4)   DRY(  5,  5)   
    DRY(  5,  6)   DRY(  5,  7)   DRY(  5,  8)   DRY(  5,  9)   DRY(  5, 10)   
    DRY(  5, 11)   DRY(  5, 12)   DRY(  5, 13)   DRY(  5, 14)   DRY(  5, 15)   
    DRY(  5, 16)   DRY(  5, 17)   DRY(  5, 18)   DRY(  5, 19)   DRY(  5, 20)   
    DRY(  5, 21)   DRY(  5, 22)   DRY(  5, 23)   DRY(  5, 24)   DRY(  5, 25)   
    DRY(  5, 26)   DRY(  5, 27)   DRY(  5, 28)   DRY(  5, 29)   DRY(  5, 30)   
    DRY(  5, 31)   DRY(  5, 32)   DRY(  5, 33)   DRY(  5, 34)   DRY(  5, 35)   
    DRY(  5, 36)   DRY(  5, 37)   DRY(  5, 38)   DRY(  5, 39)   DRY(  5, 40)   
    DRY(  5, 41)   DRY(  5, 42)   DRY(  5, 43)   DRY(  5, 44)   DRY(  5, 45)   
    DRY(  5, 46)   DRY(  5, 47)   DRY(  5, 48)   DRY(  5, 49)   DRY(  5, 50)   
    DRY(  5, 51)   DRY(  5, 52)   DRY(  5, 53)   DRY(  5, 54)   DRY(  5, 55)   
    DRY(  5, 56)   DRY(  5, 57)   DRY(  5, 58)   DRY(  5, 59)   DRY(  5, 60)   
    DRY(  5, 61)   DRY(  5, 62)   DRY(  5, 63)   DRY(  5, 64)   DRY(  5, 65)   
    DRY(  5, 66)   DRY(  5, 67)   DRY(  5, 68)   DRY(  5, 69)   DRY(  5, 70)   
    DRY(  5, 71)   DRY(  5, 72)   DRY(  5, 73)   DRY(  5, 74)   DRY(  5, 75)   
    DRY(  5, 76)   DRY(  5, 77)   DRY(  5, 78)   DRY(  5, 79)   DRY(  5, 80)   
    DRY(  5, 81)   DRY(  5, 82)   DRY(  5, 83)   DRY(  5, 84)   DRY(  5, 85)   
    DRY(  5, 86)   DRY(  5, 87)   DRY(  5, 88)   DRY(  5, 89)   DRY(  5, 90)   
    DRY(  5, 91)   DRY(  5, 92)   DRY(  5, 93)   DRY(  5, 94)   DRY(  5, 95)   
    DRY(  5, 96)   DRY(  5, 97)   DRY(  5, 98)   DRY(  5, 99)   DRY(  5,100)   
    DRY(  5,101)   DRY(  5,102)   DRY(  5,103)   DRY(  5,104)   DRY(  5,105)   
    DRY(  5,106)   DRY(  5,107)   DRY(  5,108)   DRY(  5,109)   DRY(  5,110)   
    DRY(  5,111)   DRY(  5,112)   DRY(  5,113)   DRY(  5,114)   DRY(  5,115)   
    DRY(  5,116)   DRY(  5,117)   DRY(  5,118)   DRY(  5,119)   DRY(  5,120)   
    DRY(  5,121)   DRY(  5,122)   DRY(  5,123)   DRY(  5,124)   DRY(  5,125)   
    DRY(  5,126)   DRY(  5,127)   DRY(  5,128)   DRY(  5,129)   DRY(  5,130)   
    DRY(  5,131)   DRY(  5,132)   DRY(  5,133)   DRY(  5,134)   DRY(  5,135)   
    DRY(  5,136)   DRY(  5,137)   DRY(  5,138)   DRY(  5,139)   DRY(  5,140)   
    DRY(  5,141)   DRY(  5,142)   DRY(  5,143)   DRY(  5,144)   DRY(  5,145)   
    DRY(  5,146)   DRY(  5,147)   DRY(  5,148)   DRY(  5,149)   DRY(  5,150)   
    DRY(  5,151)   DRY(  5,152)   DRY(  5,153)   DRY(  5,154)   DRY(  5,155)   
    DRY(  5,156)   DRY(  5,157)   DRY(  5,158)   DRY(  5,159)   DRY(  5,160)   
    DRY(  5,161)   DRY(  5,162)   DRY(  5,163)   DRY(  5,164)   DRY(  5,165)   
    DRY(  5,166)   DRY(  5,167)   DRY(  5,168)   DRY(  5,169)   DRY(  5,170)   
    DRY(  5,171)   DRY(  5,172)   DRY(  5,173)   DRY(  5,174)   DRY(  5,175)   
    DRY(  5,176)   DRY(  5,177)   DRY(  5,178)   DRY(  5,179)   DRY(  5,180)   
    DRY(  5,181)   DRY(  5,182)   DRY(  5,183)   DRY(  5,184)   DRY(  5,185)   
    DRY(  5,186)   DRY(  5,187)   DRY(  5,188)   DRY(  5,189)   DRY(  5,190)   
    DRY(  5,191)   DRY(  5,192)   DRY(  5,193)   DRY(  5,194)   DRY(  5,195)   
    DRY(  5,196)   DRY(  5,197)   DRY(  5,198)   DRY(  5,199)   DRY(  5,200)   
    DRY(  5,201)   DRY(  5,202)   DRY(  5,203)   DRY(  5,204)   DRY(  5,205)   
    DRY(  5,206)   DRY(  5,207)   DRY(  5,208)   DRY(  5,209)   DRY(  5,210)   
    DRY(  5,211)   DRY(  5,212)   DRY(  5,213)   DRY(  5,214)   DRY(  5,215)   
    DRY(  5,216)   DRY(  5,217)   DRY(  5,218)   DRY(  5,219)   DRY(  5,220)   
    DRY(  6,  1)   DRY(  6,  2)   DRY(  6,  3)   DRY(  6,  4)   DRY(  6,  5)   
    DRY(  6,  6)   DRY(  6,  7)   DRY(  6,  8)   DRY(  6,  9)   DRY(  6, 10)   
    DRY(  6, 11)   DRY(  6, 12)   DRY(  6, 13)   DRY(  6, 14)   DRY(  6, 15)   
    DRY(  6, 16)   DRY(  6, 17)   DRY(  6, 18)   DRY(  6, 19)   DRY(  6, 20)   
    DRY(  6, 21)   DRY(  6, 22)   DRY(  6, 23)   DRY(  6, 24)   DRY(  6, 25)   
    DRY(  6, 26)   DRY(  6, 27)   DRY(  6, 28)   DRY(  6, 29)   DRY(  6, 30)   
    DRY(  6, 31)   DRY(  6, 32)   DRY(  6, 33)   DRY(  6, 34)   DRY(  6, 35)   
    DRY(  6, 36)   DRY(  6, 37)   DRY(  6, 38)   DRY(  6, 39)   DRY(  6, 40)   
    DRY(  6, 41)   DRY(  6, 42)   DRY(  6, 43)   DRY(  6, 44)   DRY(  6, 45)   
    DRY(  6, 46)   DRY(  6, 47)   DRY(  6, 48)   DRY(  6, 49)   DRY(  6, 50)   
    DRY(  6, 51)   DRY(  6, 52)   DRY(  6, 53)   DRY(  6, 54)   DRY(  6, 55)   
    DRY(  6, 56)   DRY(  6, 57)   DRY(  6, 58)   DRY(  6, 59)   DRY(  6, 60)   
    DRY(  6, 61)   DRY(  6, 62)   DRY(  6, 63)   DRY(  6, 64)   DRY(  6, 65)   
    DRY(  6, 66)   DRY(  6, 67)   DRY(  6, 68)   DRY(  6, 69)   DRY(  6, 70)   
    DRY(  6, 71)   DRY(  6, 72)   DRY(  6, 73)   DRY(  6, 74)   DRY(  6, 75)   
    DRY(  6, 76)   DRY(  6, 77)   DRY(  6, 78)   DRY(  6, 79)   DRY(  6, 80)   
    DRY(  6, 81)   DRY(  6, 82)   DRY(  6, 83)   DRY(  6, 84)   DRY(  6, 85)   
    DRY(  6, 86)   DRY(  6, 87)   DRY(  6, 88)   DRY(  6, 89)   DRY(  6, 90)   
    DRY(  6, 91)   DRY(  6, 92)   DRY(  6, 93)   DRY(  6, 94)   DRY(  6, 95)   
    DRY(  6, 96)   DRY(  6, 97)   DRY(  6, 98)   DRY(  6, 99)   DRY(  6,100)   
    DRY(  6,101)   DRY(  6,102)   DRY(  6,103)   DRY(  6,104)   DRY(  6,105)   
    DRY(  6,106)   DRY(  6,107)   DRY(  6,108)   DRY(  6,109)   DRY(  6,110)   
    DRY(  6,111)   DRY(  6,112)   DRY(  6,113)   DRY(  6,114)   DRY(  6,115)   
    DRY(  6,116)   DRY(  6,117)   DRY(  6,118)   DRY(  6,119)   DRY(  6,120)   
    DRY(  6,121)   DRY(  6,122)   DRY(  6,123)   DRY(  6,124)   DRY(  6,125)   
    DRY(  6,126)   DRY(  6,127)   DRY(  6,128)   DRY(  6,129)   DRY(  6,130)   
    DRY(  6,131)   DRY(  6,132)   DRY(  6,133)   DRY(  6,134)   DRY(  6,135)   
[...]
    DRY( 88,161)   DRY( 88,162)   DRY( 88,163)   DRY( 88,164)   DRY( 88,165)   
    DRY( 88,166)   DRY( 88,167)   DRY( 88,168)   DRY( 88,169)   DRY( 88,170)   
    DRY( 88,171)   DRY( 88,172)   DRY( 88,173)   DRY( 88,174)   DRY( 88,175)   
    DRY( 88,176)   DRY( 88,177)   DRY( 88,178)   DRY( 88,179)   DRY( 88,180)   
    DRY( 88,181)   DRY( 88,182)   DRY( 88,183)   DRY( 88,184)   DRY( 88,185)   
    DRY( 88,186)   DRY( 88,187)   DRY( 88,188)   DRY( 88,189)   DRY( 88,190)   
    DRY( 88,191)   DRY( 88,192)   DRY( 88,193)   DRY( 88,194)   DRY( 88,195)   
    DRY( 88,196)   DRY( 88,197)   DRY( 88,198)   DRY( 88,199)   DRY( 88,200)   
    DRY( 88,201)   DRY( 88,202)   DRY( 88,203)   DRY( 88,204)   DRY( 88,205)   
    DRY( 88,206)   DRY( 88,207)   DRY( 88,208)   DRY( 88,209)   DRY( 88,210)   
    DRY( 88,211)   DRY( 88,212)   DRY( 88,213)   DRY( 88,214)   DRY( 88,215)   
    DRY( 88,216)   DRY( 88,217)   DRY( 88,218)   DRY( 88,219)   DRY( 88,220)   
    DRY( 89,  1)   DRY( 89,  2)   DRY( 89,  3)   DRY( 89,  4)   DRY( 89,  5)   
    DRY( 89,  6)   DRY( 89,  7)   DRY( 89,  8)   DRY( 89,  9)   DRY( 89, 10)   
    DRY( 89, 11)   DRY( 89, 12)   DRY( 89, 13)   DRY( 89, 14)   DRY( 89, 15)   
    DRY( 89, 16)   DRY( 89, 17)   DRY( 89, 18)   DRY( 89, 19)   DRY( 89, 20)   
    DRY( 89, 21)   DRY( 89, 22)   DRY( 89, 23)   DRY( 89, 24)   DRY( 89, 25)   
    DRY( 89, 26)   DRY( 89, 27)   DRY( 89, 28)   DRY( 89, 29)   DRY( 89, 30)   
    DRY( 89, 31)   DRY( 89, 32)   DRY( 89, 33)   DRY( 89, 34)   DRY( 89, 35)   
    DRY( 89, 36)   DRY( 89, 37)   DRY( 89, 38)   DRY( 89, 39)   DRY( 89, 40)   
    DRY( 89, 41)   DRY( 89, 42)   DRY( 89, 43)   DRY( 89, 44)   DRY( 89, 45)   
    DRY( 89, 46)   DRY( 89, 47)   DRY( 89, 48)   DRY( 89, 49)   DRY( 89, 50)   
    DRY( 89, 51)   DRY( 89, 52)   DRY( 89, 53)   DRY( 89, 54)   DRY( 89, 55)   
    DRY( 89, 56)   DRY( 89, 57)   DRY( 89, 58)   DRY( 89, 59)   DRY( 89, 60)   
    DRY( 89, 61)   DRY( 89, 62)   DRY( 89, 63)   DRY( 89, 64)   DRY( 89, 65)   
    DRY( 89, 66)   DRY( 89, 67)   DRY( 89, 68)   DRY( 89, 69)   DRY( 89, 70)   
    DRY( 89, 71)   DRY( 89, 72)   DRY( 89, 73)   DRY( 89, 74)   DRY( 89, 75)   
    DRY( 89, 76)   DRY( 89, 77)   DRY( 89, 78)   DRY( 89, 79)   DRY( 89, 80)   
    DRY( 89, 81)   DRY( 89, 82)   DRY( 89, 83)   DRY( 89, 84)   DRY( 89, 85)   
    DRY( 89, 86)   DRY( 89, 87)   DRY( 89, 88)   DRY( 89, 89)   DRY( 89, 90)   
    DRY( 89, 91)   DRY( 89, 92)   DRY( 89, 93)   DRY( 89, 94)   DRY( 89, 95)   
    DRY( 89, 96)   DRY( 89, 97)   DRY( 89, 98)   DRY( 89, 99)   DRY( 89,100)   
    DRY( 89,101)   DRY( 89,102)   DRY( 89,103)   DRY( 89,104)   DRY( 89,105)   
    DRY( 89,106)   DRY( 89,107)   DRY( 89,108)   DRY( 89,109)   DRY( 89,110)   
    DRY( 89,111)   DRY( 89,112)   DRY( 89,113)   DRY( 89,114)   DRY( 89,115)   
    DRY( 89,116)   DRY( 89,117)   DRY( 89,118)   DRY( 89,119)   DRY( 89,120)   
    DRY( 89,121)   DRY( 89,122)   DRY( 89,123)   DRY( 89,124)   DRY( 89,125)   
    DRY( 89,126)   DRY( 89,127)   DRY( 89,128)   DRY( 89,129)   DRY( 89,130)   
    DRY( 89,131)   DRY( 89,132)   DRY( 89,133)   DRY( 89,134)   DRY( 89,135)   
    DRY( 89,136)   DRY( 89,137)   DRY( 89,138)   DRY( 89,139)   DRY( 89,140)   
    DRY( 89,141)   DRY( 89,142)   DRY( 89,143)   DRY( 89,144)   DRY( 89,145)   
    DRY( 89,146)   DRY( 89,147)   DRY( 89,148)   DRY( 89,149)   DRY( 89,150)   
    DRY( 89,151)   DRY( 89,152)   DRY( 89,153)   DRY( 89,154)   DRY( 89,155)   
    DRY( 89,156)   DRY( 89,157)   DRY( 89,158)   DRY( 89,159)   DRY( 89,160)   
    DRY( 89,161)   DRY( 89,162)   DRY( 89,163)   DRY( 89,164)   DRY( 89,165)   
    DRY( 89,166)   DRY( 89,167)   DRY( 89,168)   DRY( 89,169)   DRY( 89,170)   
    DRY( 89,171)   DRY( 89,172)   DRY( 89,173)   DRY( 89,174)   DRY( 89,175)   
    DRY( 89,176)   DRY( 89,177)   DRY( 89,178)   DRY( 89,179)   DRY( 89,180)   
    DRY( 89,181)   DRY( 89,182)   DRY( 89,183)   DRY( 89,184)   DRY( 89,185)   
    DRY( 89,186)   DRY( 89,187)   DRY( 89,188)   DRY( 89,189)   DRY( 89,190)   
    DRY( 89,191)   DRY( 89,192)   DRY( 89,193)   DRY( 89,194)   DRY( 89,195)   
    DRY( 89,196)   DRY( 89,197)   DRY( 89,198)   DRY( 89,199)   DRY( 89,200)   
    DRY( 89,201)   DRY( 89,202)   DRY( 89,203)   DRY( 89,204)   DRY( 89,205)   
    DRY( 89,206)   DRY( 89,207)   DRY( 89,208)   DRY( 89,209)   DRY( 89,210)   
    DRY( 89,211)   DRY( 89,212)   DRY( 89,213)   DRY( 89,214)   DRY( 89,215)   
    DRY( 89,216)   DRY( 89,217)   DRY( 89,218)   DRY( 89,219)   DRY( 89,220)   
    DRY( 90,  1)   DRY( 90,  2)   DRY( 90,  3)   DRY( 90,  4)   DRY( 90,  5)   
    DRY( 90,  6)   DRY( 90,  7)   DRY( 90,  8)   DRY( 90,  9)   DRY( 90, 10)   
    DRY( 90, 11)   DRY( 90, 12)   DRY( 90, 13)   DRY( 90, 14)   DRY( 90, 15)   
    DRY( 90, 16)   DRY( 90, 17)   DRY( 90, 18)   DRY( 90, 19)   DRY( 90, 20)   
    DRY( 90, 21)   DRY( 90, 22)   DRY( 90, 23)   DRY( 90, 24)   DRY( 90, 25)   
    DRY( 90, 26)   DRY( 90, 27)   DRY( 90, 28)   DRY( 90, 29)   DRY( 90, 30)   
    DRY( 90, 31)   DRY( 90, 32)   DRY( 90, 33)   DRY( 90, 34)   DRY( 90, 35)   
    DRY( 90, 36)   DRY( 90, 37)   DRY( 90, 38)   DRY( 90, 39)   DRY( 90, 40)   
    DRY( 90, 41)   DRY( 90, 42)   DRY( 90, 43)   DRY( 90, 44)   DRY( 90, 45)   
    DRY( 90, 46)   DRY( 90, 47)   DRY( 90, 48)   DRY( 90, 49)   DRY( 90, 50)   
    DRY( 90, 51)   DRY( 90, 52)   DRY( 90, 53)   DRY( 90, 54)   DRY( 90, 55)   
    DRY( 90, 56)   DRY( 90, 57)   DRY( 90, 58)   DRY( 90, 59)   DRY( 90, 60)   
    DRY( 90, 61)   DRY( 90, 62)   DRY( 90, 63)   DRY( 90, 64)   DRY( 90, 65)   
    DRY( 90, 66)   DRY( 90, 67)   DRY( 90, 68)   DRY( 90, 69)   DRY( 90, 70)   
    DRY( 90, 71)   DRY( 90, 72)   DRY( 90, 73)   DRY( 90, 74)   DRY( 90, 75)   
    DRY( 90, 76)   DRY( 90, 77)   DRY( 90, 78)   DRY( 90, 79)   DRY( 90, 80)   
    DRY( 90, 81)   DRY( 90, 82)   DRY( 90, 83)   DRY( 90, 84)   DRY( 90, 85)   
    DRY( 90, 86)   DRY( 90, 87)   DRY( 90, 88)   DRY( 90, 89)   DRY( 90, 90)   
    DRY( 90, 91)   DRY( 90, 92)   DRY( 90, 93)   DRY( 90, 94)   DRY( 90, 95)   
    DRY( 90, 96)   DRY( 90, 97)   DRY( 90, 98)   DRY( 90, 99)   DRY( 90,100)   
    DRY( 90,101)   DRY( 90,102)   DRY( 90,103)   DRY( 90,104)   DRY( 90,105)   
    DRY( 90,106)   DRY( 90,107)   DRY( 90,108)   DRY( 90,109)   DRY( 90,110)   
    DRY( 90,111)   DRY( 90,112)   DRY( 90,113)   DRY( 90,114)   DRY( 90,115)   
    DRY( 90,116)   DRY( 90,117)   DRY( 90,118)   DRY( 90,119)   DRY( 90,120)   
    DRY( 90,121)   DRY( 90,122)   DRY( 90,123)   DRY( 90,124)   DRY( 90,125)   
    DRY( 90,126)   DRY( 90,127)   DRY( 90,128)   DRY( 90,129)   DRY( 90,130)   
    DRY( 90,131)   DRY( 90,132)   DRY( 90,133)   DRY( 90,134)   DRY( 90,135)   
    DRY( 90,136)   DRY( 90,137)   DRY( 90,138)   DRY( 90,139)   DRY( 90,140)   
    DRY( 90,141)   DRY( 90,142)   DRY( 90,143)   DRY( 90,144)   DRY( 90,145)   
    DRY( 90,146)   DRY( 90,147)   DRY( 90,148)   DRY( 90,149)   DRY( 90,150)   
    DRY( 90,151)   DRY( 90,152)   DRY( 90,153)   DRY( 90,154)   DRY( 90,155)   
    DRY( 90,156)   DRY( 90,157)   DRY( 90,158)   DRY( 90,159)   DRY( 90,160)   
    DRY( 90,161)   DRY( 90,162)   DRY( 90,163)   DRY( 90,164)   DRY( 90,165)   
    DRY( 90,166)   DRY( 90,167)   DRY( 90,168)   DRY( 90,169)   DRY( 90,170)   
    DRY( 90,171)   DRY( 90,172)   DRY( 90,173)   DRY( 90,174)   DRY( 90,175)   
    DRY( 90,176)   DRY( 90,177)   DRY( 90,178)   DRY( 90,179)   DRY( 90,180)   
    DRY( 90,181)   DRY( 90,182)   DRY( 90,183)   DRY( 90,184)   DRY( 90,185)   
    DRY( 90,186)   DRY( 90,187)   DRY( 90,188)   DRY( 90,189)   DRY( 90,190)   
    DRY( 90,191)   DRY( 90,192)   DRY( 90,193)   DRY( 90,194)   DRY( 90,195)   
    DRY( 90,196)   DRY( 90,197)   DRY( 90,198)   DRY( 90,199)   DRY( 90,200)   
    DRY( 90,201)   DRY( 90,202)   DRY( 90,203)   DRY( 90,204)   DRY( 90,205)   
    DRY( 90,206)   DRY( 90,207)   DRY( 90,208)   DRY( 90,209)   DRY( 90,210)   
    DRY( 90,211)   DRY( 90,212)   DRY( 90,213)   DRY( 90,214)   DRY( 90,215)   
    DRY( 90,216)   DRY( 90,217)   DRY( 90,218)   DRY( 90,219)   DRY( 90,220)   

 OUTPUT CONTROL FOR STRESS PERIOD    1   TIME STEP    1
    SAVE HEAD FOR ALL LAYERS

 HEAD WILL BE SAVED ON UNIT   51 AT END OF TIME STEP    1, STRESS PERIOD    1
1
  VOLUMETRIC BUDGET FOR ENTIRE MODEL AT END OF TIME STEP    1, STRESS PERIOD   1
  ------------------------------------------------------------------------------

     CUMULATIVE VOLUMES      L**3       RATES FOR THIS TIME STEP      L**3/T
     ------------------                 ------------------------

           IN:                                      IN:
           ---                                      ---
             STORAGE =           0.0000               STORAGE =           0.0000
       CONSTANT HEAD =       25811.2500         CONSTANT HEAD =         860.3750
               WELLS =           0.0000                 WELLS =           0.0000

            TOTAL IN =       25811.2500              TOTAL IN =         860.3750

          OUT:                                     OUT:
          ----                                     ----
             STORAGE =           0.0000               STORAGE =           0.0000
       CONSTANT HEAD =       25811.2520         CONSTANT HEAD =         860.3751
               WELLS =           0.0000                 WELLS =           0.0000

           TOTAL OUT =       25811.2520             TOTAL OUT =         860.3751

            IN - OUT =      -1.9531E-03              IN - OUT =      -6.1035E-05

 PERCENT DISCREPANCY =          -0.00     PERCENT DISCREPANCY =          -0.00






         TIME SUMMARY AT END OF TIME STEP    1 IN STRESS PERIOD    1
                    SECONDS     MINUTES      HOURS       DAYS        YEARS
                    -----------------------------------------------------------
   TIME STEP LENGTH 2.59200E+06  43200.      720.00      30.000     8.21355E-02
 STRESS PERIOD TIME 2.59200E+06  43200.      720.00      30.000     8.21355E-02
         TOTAL TIME 2.59200E+06  43200.      720.00      30.000     8.21355E-02
1
1
                            STRESS PERIOD NO.    2, LENGTH =   30.00000    
                            -----------------------------------------------

                              NUMBER OF TIME STEPS =     1

                               MULTIPLIER FOR DELT =     1.000

                            INITIAL TIME STEP SIZE =   30.00000    

 WELL NO.  LAYER   ROW   COL   STRESS RATE         
 --------------------------------------------------
      1     31     76     21       654.0    

      1 WELL 
 
 SOLVING FOR HEAD 

 OUTPUT CONTROL FOR STRESS PERIOD    2   TIME STEP    1
    SAVE HEAD FOR ALL LAYERS

 HEAD WILL BE SAVED ON UNIT   51 AT END OF TIME STEP    1, STRESS PERIOD    2
1
  VOLUMETRIC BUDGET FOR ENTIRE MODEL AT END OF TIME STEP    1, STRESS PERIOD   2
  ------------------------------------------------------------------------------

     CUMULATIVE VOLUMES      L**3       RATES FOR THIS TIME STEP      L**3/T
     ------------------                 ------------------------

           IN:                                      IN:
           ---                                      ---
             STORAGE =       4.3821E-02               STORAGE =       1.4607E-03
       CONSTANT HEAD =       51571.9766         CONSTANT HEAD =         858.6910
               WELLS =       19620.0000                 WELLS =         654.0000

            TOTAL IN =       71192.0156              TOTAL IN =        1512.6924

          OUT:                                     OUT:
          ----                                     ----
             STORAGE =       18728.7852               STORAGE =         624.2928
       CONSTANT HEAD =       52463.2188         CONSTANT HEAD =         888.3989
               WELLS =           0.0000                 WELLS =           0.0000

           TOTAL OUT =       71192.0000             TOTAL OUT =        1512.6918

            IN - OUT =       1.5625E-02              IN - OUT =       6.1035E-04

 PERCENT DISCREPANCY =           0.00     PERCENT DISCREPANCY =           0.00






         TIME SUMMARY AT END OF TIME STEP    1 IN STRESS PERIOD    2
                    SECONDS     MINUTES      HOURS       DAYS        YEARS
                    -----------------------------------------------------------
   TIME STEP LENGTH 2.59200E+06  43200.      720.00      30.000     8.21355E-02
 STRESS PERIOD TIME 2.59200E+06  43200.      720.00      30.000     8.21355E-02
         TOTAL TIME 5.18400E+06  86400.      1440.0      60.000     0.16427    
1
1
                            STRESS PERIOD NO.    3, LENGTH =   30.00000    
                            -----------------------------------------------

                              NUMBER OF TIME STEPS =     1

                               MULTIPLIER FOR DELT =     1.000

                            INITIAL TIME STEP SIZE =   30.00000    

 WELL NO.  LAYER   ROW   COL   STRESS RATE         
 --------------------------------------------------
      1     31     76     21       654.0    

      1 WELL 
 
 SOLVING FOR HEAD 

 OUTPUT CONTROL FOR STRESS PERIOD    3   TIME STEP    1
    SAVE HEAD FOR ALL LAYERS

 HEAD WILL BE SAVED ON UNIT   51 AT END OF TIME STEP    1, STRESS PERIOD    3
1
  VOLUMETRIC BUDGET FOR ENTIRE MODEL AT END OF TIME STEP    1, STRESS PERIOD   3
  ------------------------------------------------------------------------------

     CUMULATIVE VOLUMES      L**3       RATES FOR THIS TIME STEP      L**3/T
     ------------------                 ------------------------

           IN:                                      IN:
           ---                                      ---
             STORAGE =       4.5280E-02               STORAGE =       4.8633E-05
       CONSTANT HEAD =       76016.5938         CONSTANT HEAD =         814.8207
               WELLS =       39240.0000                 WELLS =         654.0000

            TOTAL IN =      115256.6406              TOTAL IN =        1468.8208

          OUT:                                     OUT:
          ----                                     ----
             STORAGE =       32669.7969               STORAGE =         464.7004
       CONSTANT HEAD =       82586.8203         CONSTANT HEAD =        1004.1201
               WELLS =           0.0000                 WELLS =           0.0000

           TOTAL OUT =      115256.6172             TOTAL OUT =        1468.8204

            IN - OUT =       2.3438E-02              IN - OUT =       3.6621E-04

 PERCENT DISCREPANCY =           0.00     PERCENT DISCREPANCY =           0.00






         TIME SUMMARY AT END OF TIME STEP    1 IN STRESS PERIOD    3
                    SECONDS     MINUTES      HOURS       DAYS        YEARS
                    -----------------------------------------------------------
   TIME STEP LENGTH 2.59200E+06  43200.      720.00      30.000     8.21355E-02
 STRESS PERIOD TIME 2.59200E+06  43200.      720.00      30.000     8.21355E-02
         TOTAL TIME 7.77600E+06 1.29600E+05  2160.0      90.000     0.24641    
1
1
                            STRESS PERIOD NO.    4, LENGTH =   30.00000    
                            -----------------------------------------------

                              NUMBER OF TIME STEPS =     1

                               MULTIPLIER FOR DELT =     1.000

                            INITIAL TIME STEP SIZE =   30.00000    

 REUSING NON-PARAMETER WELLS FROM LAST STRESS PERIOD

      1 WELL 
 
 SOLVING FOR HEAD 

 OUTPUT CONTROL FOR STRESS PERIOD    4   TIME STEP    1
    SAVE HEAD FOR ALL LAYERS

 HEAD WILL BE SAVED ON UNIT   51 AT END OF TIME STEP    1, STRESS PERIOD    4
1
  VOLUMETRIC BUDGET FOR ENTIRE MODEL AT END OF TIME STEP    1, STRESS PERIOD   4
  ------------------------------------------------------------------------------

     CUMULATIVE VOLUMES      L**3       RATES FOR THIS TIME STEP      L**3/T
     ------------------                 ------------------------

           IN:                                      IN:
           ---                                      ---
             STORAGE =       4.5280E-02               STORAGE =           0.0000
       CONSTANT HEAD =       98179.8281         CONSTANT HEAD =         738.7746
               WELLS =       58860.0000                 WELLS =         654.0000

            TOTAL IN =      157039.8750              TOTAL IN =        1392.7747

          OUT:                                     OUT:
          ----                                     ----
             STORAGE =       41249.3516               STORAGE =         285.9851
       CONSTANT HEAD =      115790.4688         CONSTANT HEAD =        1106.7882
               WELLS =           0.0000                 WELLS =           0.0000

           TOTAL OUT =      157039.8125             TOTAL OUT =        1392.7733

            IN - OUT =       6.2500E-02              IN - OUT =       1.3428E-03

 PERCENT DISCREPANCY =           0.00     PERCENT DISCREPANCY =           0.00






         TIME SUMMARY AT END OF TIME STEP    1 IN STRESS PERIOD    4
                    SECONDS     MINUTES      HOURS       DAYS        YEARS
                    -----------------------------------------------------------
   TIME STEP LENGTH 2.59200E+06  43200.      720.00      30.000     8.21355E-02
 STRESS PERIOD TIME 2.59200E+06  43200.      720.00      30.000     8.21355E-02
         TOTAL TIME 1.03680E+07 1.72800E+05  2880.0      120.00     0.32854    
1
1
                            STRESS PERIOD NO.    5, LENGTH =   30.00000    
                            -----------------------------------------------

                              NUMBER OF TIME STEPS =     1

                               MULTIPLIER FOR DELT =     1.000

                            INITIAL TIME STEP SIZE =   30.00000    

 REUSING NON-PARAMETER WELLS FROM LAST STRESS PERIOD

      1 WELL 
 
 SOLVING FOR HEAD 

 OUTPUT CONTROL FOR STRESS PERIOD    5   TIME STEP    1
    SAVE HEAD FOR ALL LAYERS

 HEAD WILL BE SAVED ON UNIT   51 AT END OF TIME STEP    1, STRESS PERIOD    5
1
  VOLUMETRIC BUDGET FOR ENTIRE MODEL AT END OF TIME STEP    1, STRESS PERIOD   5
  ------------------------------------------------------------------------------

     CUMULATIVE VOLUMES      L**3       RATES FOR THIS TIME STEP      L**3/T
     ------------------                 ------------------------

           IN:                                      IN:
           ---                                      ---
             STORAGE =       4.5280E-02               STORAGE =           0.0000
       CONSTANT HEAD =      119218.2812         CONSTANT HEAD =         701.2819
               WELLS =       78480.0000                 WELLS =         654.0000

            TOTAL IN =      197698.3281              TOTAL IN =        1355.2820

          OUT:                                     OUT:
          ----                                     ----
             STORAGE =       47089.5156               STORAGE =         194.6721
       CONSTANT HEAD =      150608.7656         CONSTANT HEAD =        1160.6100
               WELLS =           0.0000                 WELLS =           0.0000

           TOTAL OUT =      197698.2812             TOTAL OUT =        1355.2821

            IN - OUT =       4.6875E-02              IN - OUT =      -1.2207E-04

 PERCENT DISCREPANCY =           0.00     PERCENT DISCREPANCY =          -0.00






         TIME SUMMARY AT END OF TIME STEP    1 IN STRESS PERIOD    5
                    SECONDS     MINUTES      HOURS       DAYS        YEARS
                    -----------------------------------------------------------
   TIME STEP LENGTH 2.59200E+06  43200.      720.00      30.000     8.21355E-02
 STRESS PERIOD TIME 2.59200E+06  43200.      720.00      30.000     8.21355E-02
         TOTAL TIME 1.29600E+07 2.16000E+05  3600.0      150.00     0.41068    
1

 Run end date and time (yyyy/mm/dd hh:mm:ss): 2023/09/07  4:00:11
 Elapsed run time: 22.604 Seconds

