                                  SEAWAT Version 4
      U.S. GEOLOGICAL SURVEY MODULAR FINITE-DIFFERENCE GROUND-WATER FLOW MODEL
                           VERSION 4.00.05 10/19/2012


 This model run combines GLOBAL and LIST output into this single file.

 GLOBAL LISTING FILE: example_model.list
                         UNIT    2

 OPENING example_model.dis
 FILE TYPE:DIS   UNIT   11   STATUS:OLD    
 FORMAT:FORMATTED              ACCESS:SEQUENTIAL          

 OPENING example_model.bas
 FILE TYPE:BAS6   UNIT   13   STATUS:OLD    
 FORMAT:FORMATTED              ACCESS:SEQUENTIAL          

 OPENING example_model.lpf
 FILE TYPE:LPF   UNIT   15   STATUS:OLD    
 FORMAT:FORMATTED              ACCESS:SEQUENTIAL          

 OPENING example_model.pcg
 FILE TYPE:PCG   UNIT   27   STATUS:OLD    
 FORMAT:FORMATTED              ACCESS:SEQUENTIAL          

 OPENING example_model.oc
 FILE TYPE:OC   UNIT   14   STATUS:OLD    
 FORMAT:FORMATTED              ACCESS:SEQUENTIAL          

 OPENING example_model.wel
 FILE TYPE:WEL   UNIT   20   STATUS:OLD    
 FORMAT:FORMATTED              ACCESS:SEQUENTIAL          

 OPENING example_model.btn
 FILE TYPE:BTN   UNIT   31   STATUS:OLD    
 FORMAT:FORMATTED              ACCESS:SEQUENTIAL          

 OPENING example_model.adv
 FILE TYPE:ADV   UNIT   32   STATUS:OLD    
 FORMAT:FORMATTED              ACCESS:SEQUENTIAL          

 OPENING example_model.dsp
 FILE TYPE:DSP   UNIT   33   STATUS:OLD    
 FORMAT:FORMATTED              ACCESS:SEQUENTIAL          

 OPENING example_model.gcg
 FILE TYPE:GCG   UNIT   35   STATUS:OLD    
 FORMAT:FORMATTED              ACCESS:SEQUENTIAL          

 OPENING example_model.ssm
 FILE TYPE:SSM   UNIT   34   STATUS:OLD    
 FORMAT:FORMATTED              ACCESS:SEQUENTIAL          

 OPENING example_model.rct
 FILE TYPE:RCT   UNIT   36   STATUS:OLD    
 FORMAT:FORMATTED              ACCESS:SEQUENTIAL          

 OPENING example_model.cbc
 FILE TYPE:DATA(BINARY)   UNIT   53   STATUS:REPLACE
 FORMAT:BINARY                 ACCESS:SEQUENTIAL          

 OPENING example_model.hds
 FILE TYPE:DATA(BINARY)   UNIT   51   STATUS:REPLACE
 FORMAT:BINARY                 ACCESS:SEQUENTIAL          

 THE FREE FORMAT OPTION HAS BEEN SELECTED

 DISCRETIZATION INPUT DATA READ FROM UNIT   11
 # DIS package for SEAWAT generated by Flopy 3.3.6
   50 LAYERS       190 ROWS       220 COLUMNS
    7 STRESS PERIOD(S) IN SIMULATION
 MODEL TIME UNIT IS DAYS
 MODEL LENGTH UNIT IS METERS
  ----- 
 | M T | ## BTN for MT3DMS, generated by Flopy.                                          
 | 3 D | ##                                                                              
  ----- 
 THE TRANSPORT MODEL CONSISTS OF    50 LAYER(S)  190 ROW(S)  220 COLUMN(S)
 NUMBER OF STRESS PERIOD(S) FOR TRANSPORT SIMULATION =    7
 NUMBER OF ALL COMPONENTS INCLUDED IN SIMULATION =    1
 NUMBER OF MOBILE COMPONENTS INCLUDED IN SIMULATION =    1
 UNIT FOR TIME IS D   ;  UNIT FOR LENGTH IS M   ;  UNIT FOR MASS IS KG  
 OPTIONAL PACKAGES INCLUDED IN CURRENT SIMULATION:
  o ADV   ON UNIT 32
  o DSP   ON UNIT 33
  o SSM   ON UNIT 34
  o RCT   ON UNIT 36
  o GCG   ON UNIT 35

 THE GROUND-WATER TRANSPORT PROCESS IS INACTIVE

 THE OBSERVATION PROCESS IS INACTIVE
 THE SENSITIVITY PROCESS IS INACTIVE
 THE PARAMETER-ESTIMATION PROCESS IS INACTIVE

 MODE: FORWARD

  Confining bed flag for each layer:
   0   0   0   0   0   0   0   0   0   0   0   0   0   0   0   0   0   0   0   0
   0   0   0   0   0   0   0   0   0   0   0   0   0   0   0   0   0   0   0   0
   0   0   0   0   0   0   0   0   0   0

   18810410  ELEMENTS OF GX ARRAY USED OUT OF   18810410
    2090000  ELEMENTS OF GZ ARRAY USED OUT OF    2090000
    2090000  ELEMENTS OF IG ARRAY USED OUT OF    2090000

                     DELR =   12.0000    

                     DELC =   12.0000    

 TOP ELEVATION OF LAYER 1 =   190.000    

   MODEL LAYER BOTTOM EL. =   189.500     FOR LAYER   1

   MODEL LAYER BOTTOM EL. =   189.000     FOR LAYER   2

   MODEL LAYER BOTTOM EL. =   188.500     FOR LAYER   3

   MODEL LAYER BOTTOM EL. =   188.000     FOR LAYER   4

   MODEL LAYER BOTTOM EL. =   187.500     FOR LAYER   5

   MODEL LAYER BOTTOM EL. =   187.000     FOR LAYER   6

   MODEL LAYER BOTTOM EL. =   186.500     FOR LAYER   7

   MODEL LAYER BOTTOM EL. =   186.000     FOR LAYER   8

   MODEL LAYER BOTTOM EL. =   185.500     FOR LAYER   9

   MODEL LAYER BOTTOM EL. =   185.000     FOR LAYER  10

   MODEL LAYER BOTTOM EL. =   184.500     FOR LAYER  11

   MODEL LAYER BOTTOM EL. =   184.000     FOR LAYER  12

   MODEL LAYER BOTTOM EL. =   183.500     FOR LAYER  13

   MODEL LAYER BOTTOM EL. =   183.000     FOR LAYER  14

   MODEL LAYER BOTTOM EL. =   182.500     FOR LAYER  15

   MODEL LAYER BOTTOM EL. =   182.000     FOR LAYER  16

   MODEL LAYER BOTTOM EL. =   181.500     FOR LAYER  17

   MODEL LAYER BOTTOM EL. =   181.000     FOR LAYER  18

   MODEL LAYER BOTTOM EL. =   180.500     FOR LAYER  19

   MODEL LAYER BOTTOM EL. =   180.000     FOR LAYER  20

   MODEL LAYER BOTTOM EL. =   179.500     FOR LAYER  21

   MODEL LAYER BOTTOM EL. =   179.000     FOR LAYER  22

   MODEL LAYER BOTTOM EL. =   178.500     FOR LAYER  23

   MODEL LAYER BOTTOM EL. =   178.000     FOR LAYER  24

   MODEL LAYER BOTTOM EL. =   177.500     FOR LAYER  25

   MODEL LAYER BOTTOM EL. =   177.000     FOR LAYER  26

   MODEL LAYER BOTTOM EL. =   176.500     FOR LAYER  27

   MODEL LAYER BOTTOM EL. =   176.000     FOR LAYER  28

   MODEL LAYER BOTTOM EL. =   175.500     FOR LAYER  29

   MODEL LAYER BOTTOM EL. =   175.000     FOR LAYER  30

   MODEL LAYER BOTTOM EL. =   174.500     FOR LAYER  31

   MODEL LAYER BOTTOM EL. =   174.000     FOR LAYER  32

   MODEL LAYER BOTTOM EL. =   173.500     FOR LAYER  33

   MODEL LAYER BOTTOM EL. =   173.000     FOR LAYER  34

   MODEL LAYER BOTTOM EL. =   172.500     FOR LAYER  35

   MODEL LAYER BOTTOM EL. =   172.000     FOR LAYER  36

   MODEL LAYER BOTTOM EL. =   171.500     FOR LAYER  37

   MODEL LAYER BOTTOM EL. =   171.000     FOR LAYER  38

   MODEL LAYER BOTTOM EL. =   170.500     FOR LAYER  39

   MODEL LAYER BOTTOM EL. =   170.000     FOR LAYER  40

   MODEL LAYER BOTTOM EL. =   169.500     FOR LAYER  41

   MODEL LAYER BOTTOM EL. =   169.000     FOR LAYER  42

   MODEL LAYER BOTTOM EL. =   168.500     FOR LAYER  43

   MODEL LAYER BOTTOM EL. =   168.000     FOR LAYER  44

   MODEL LAYER BOTTOM EL. =   167.500     FOR LAYER  45

   MODEL LAYER BOTTOM EL. =   167.000     FOR LAYER  46

   MODEL LAYER BOTTOM EL. =   166.500     FOR LAYER  47

   MODEL LAYER BOTTOM EL. =   166.000     FOR LAYER  48

   MODEL LAYER BOTTOM EL. =   165.500     FOR LAYER  49

   MODEL LAYER BOTTOM EL. =   165.000     FOR LAYER  50


 STRESS PERIOD     LENGTH       TIME STEPS     MULTIPLIER FOR DELT    SS FLAG
 ----------------------------------------------------------------------------
        1         200.0000          1                    1.000         SS
        2         200.0000          1                    1.000         TR
        3         200.0000          1                    1.000         TR
        4         200.0000          1                    1.000         TR
        5         200.0000          1                    1.000         TR
        6         200.0000          1                    1.000         TR
        7         200.0000          1                    1.000         TR

 COMBINED STEADY-STATE AND TRANSIENT SIMULATION




 LPF1 -- LAYER PROPERTY FLOW PACKAGE, VERSION 1, 1/11/2000
         INPUT READ FROM UNIT   15
 # LPF package for SEAWAT generated by Flopy 3.3.6
 CELL-BY-CELL FLOWS WILL BE SAVED ON UNIT   53
 HEAD AT CELLS THAT CONVERT TO DRY= -1.00000E+30
 No named parameters

   LAYER FLAGS:
 LAYER       LAYTYP        LAYAVG         CHANI        LAYVKA        LAYWET
 ---------------------------------------------------------------------------
    1             1             0     1.000E+00             0             0
    2             1             0     1.000E+00             0             0
    3             1             0     1.000E+00             0             0
    4             1             0     1.000E+00             0             0
    5             1             0     1.000E+00             0             0
    6             1             0     1.000E+00             0             0
    7             1             0     1.000E+00             0             0
    8             1             0     1.000E+00             0             0
    9             1             0     1.000E+00             0             0
   10             1             0     1.000E+00             0             0
   11             1             0     1.000E+00             0             0
   12             1             0     1.000E+00             0             0
   13             1             0     1.000E+00             0             0
   14             1             0     1.000E+00             0             0
   15             1             0     1.000E+00             0             0
   16             1             0     1.000E+00             0             0
   17             1             0     1.000E+00             0             0
   18             1             0     1.000E+00             0             0
   19             1             0     1.000E+00             0             0
   20             1             0     1.000E+00             0             0
   21             1             0     1.000E+00             0             0
   22             1             0     1.000E+00             0             0
   23             1             0     1.000E+00             0             0
   24             1             0     1.000E+00             0             0
   25             1             0     1.000E+00             0             0
   26             1             0     1.000E+00             0             0
   27             1             0     1.000E+00             0             0
   28             1             0     1.000E+00             0             0
   29             1             0     1.000E+00             0             0
   30             1             0     1.000E+00             0             0
   31             1             0     1.000E+00             0             0
   32             1             0     1.000E+00             0             0
   33             1             0     1.000E+00             0             0
   34             1             0     1.000E+00             0             0
   35             1             0     1.000E+00             0             0
   36             1             0     1.000E+00             0             0
   37             1             0     1.000E+00             0             0
   38             1             0     1.000E+00             0             0
   39             1             0     1.000E+00             0             0
   40             1             0     1.000E+00             0             0
   41             1             0     1.000E+00             0             0
   42             1             0     1.000E+00             0             0
   43             1             0     1.000E+00             0             0
   44             1             0     1.000E+00             0             0
   45             1             0     1.000E+00             0             0
   46             1             0     1.000E+00             0             0
   47             1             0     1.000E+00             0             0
   48             1             0     1.000E+00             0             0
   49             1             0     1.000E+00             0             0
   50             1             0     1.000E+00             0             0

   INTERPRETATION OF LAYER FLAGS:
                        INTERBLOCK     HORIZONTAL    DATA IN
         LAYER TYPE   TRANSMISSIVITY   ANISOTROPY   ARRAY VKA   WETTABILITY
 LAYER      (LAYTYP)      (LAYAVG)       (CHANI)      (LAYVKA)      (LAYWET)
 ---------------------------------------------------------------------------
    1   CONVERTIBLE      HARMONIC     1.000E+00    VERTICAL K  NON-WETTABLE
    2   CONVERTIBLE      HARMONIC     1.000E+00    VERTICAL K  NON-WETTABLE
    3   CONVERTIBLE      HARMONIC     1.000E+00    VERTICAL K  NON-WETTABLE
    4   CONVERTIBLE      HARMONIC     1.000E+00    VERTICAL K  NON-WETTABLE
    5   CONVERTIBLE      HARMONIC     1.000E+00    VERTICAL K  NON-WETTABLE
    6   CONVERTIBLE      HARMONIC     1.000E+00    VERTICAL K  NON-WETTABLE
    7   CONVERTIBLE      HARMONIC     1.000E+00    VERTICAL K  NON-WETTABLE
    8   CONVERTIBLE      HARMONIC     1.000E+00    VERTICAL K  NON-WETTABLE
    9   CONVERTIBLE      HARMONIC     1.000E+00    VERTICAL K  NON-WETTABLE
   10   CONVERTIBLE      HARMONIC     1.000E+00    VERTICAL K  NON-WETTABLE
   11   CONVERTIBLE      HARMONIC     1.000E+00    VERTICAL K  NON-WETTABLE
   12   CONVERTIBLE      HARMONIC     1.000E+00    VERTICAL K  NON-WETTABLE
   13   CONVERTIBLE      HARMONIC     1.000E+00    VERTICAL K  NON-WETTABLE
   14   CONVERTIBLE      HARMONIC     1.000E+00    VERTICAL K  NON-WETTABLE
   15   CONVERTIBLE      HARMONIC     1.000E+00    VERTICAL K  NON-WETTABLE
   16   CONVERTIBLE      HARMONIC     1.000E+00    VERTICAL K  NON-WETTABLE
   17   CONVERTIBLE      HARMONIC     1.000E+00    VERTICAL K  NON-WETTABLE
   18   CONVERTIBLE      HARMONIC     1.000E+00    VERTICAL K  NON-WETTABLE
   19   CONVERTIBLE      HARMONIC     1.000E+00    VERTICAL K  NON-WETTABLE
   20   CONVERTIBLE      HARMONIC     1.000E+00    VERTICAL K  NON-WETTABLE
   21   CONVERTIBLE      HARMONIC     1.000E+00    VERTICAL K  NON-WETTABLE
   22   CONVERTIBLE      HARMONIC     1.000E+00    VERTICAL K  NON-WETTABLE
   23   CONVERTIBLE      HARMONIC     1.000E+00    VERTICAL K  NON-WETTABLE
   24   CONVERTIBLE      HARMONIC     1.000E+00    VERTICAL K  NON-WETTABLE
   25   CONVERTIBLE      HARMONIC     1.000E+00    VERTICAL K  NON-WETTABLE
   26   CONVERTIBLE      HARMONIC     1.000E+00    VERTICAL K  NON-WETTABLE
   27   CONVERTIBLE      HARMONIC     1.000E+00    VERTICAL K  NON-WETTABLE
   28   CONVERTIBLE      HARMONIC     1.000E+00    VERTICAL K  NON-WETTABLE
   29   CONVERTIBLE      HARMONIC     1.000E+00    VERTICAL K  NON-WETTABLE
   30   CONVERTIBLE      HARMONIC     1.000E+00    VERTICAL K  NON-WETTABLE
   31   CONVERTIBLE      HARMONIC     1.000E+00    VERTICAL K  NON-WETTABLE
   32   CONVERTIBLE      HARMONIC     1.000E+00    VERTICAL K  NON-WETTABLE
   33   CONVERTIBLE      HARMONIC     1.000E+00    VERTICAL K  NON-WETTABLE
   34   CONVERTIBLE      HARMONIC     1.000E+00    VERTICAL K  NON-WETTABLE
   35   CONVERTIBLE      HARMONIC     1.000E+00    VERTICAL K  NON-WETTABLE
   36   CONVERTIBLE      HARMONIC     1.000E+00    VERTICAL K  NON-WETTABLE
   37   CONVERTIBLE      HARMONIC     1.000E+00    VERTICAL K  NON-WETTABLE
   38   CONVERTIBLE      HARMONIC     1.000E+00    VERTICAL K  NON-WETTABLE
   39   CONVERTIBLE      HARMONIC     1.000E+00    VERTICAL K  NON-WETTABLE
   40   CONVERTIBLE      HARMONIC     1.000E+00    VERTICAL K  NON-WETTABLE
   41   CONVERTIBLE      HARMONIC     1.000E+00    VERTICAL K  NON-WETTABLE
   42   CONVERTIBLE      HARMONIC     1.000E+00    VERTICAL K  NON-WETTABLE
   43   CONVERTIBLE      HARMONIC     1.000E+00    VERTICAL K  NON-WETTABLE
   44   CONVERTIBLE      HARMONIC     1.000E+00    VERTICAL K  NON-WETTABLE
   45   CONVERTIBLE      HARMONIC     1.000E+00    VERTICAL K  NON-WETTABLE
   46   CONVERTIBLE      HARMONIC     1.000E+00    VERTICAL K  NON-WETTABLE
   47   CONVERTIBLE      HARMONIC     1.000E+00    VERTICAL K  NON-WETTABLE
   48   CONVERTIBLE      HARMONIC     1.000E+00    VERTICAL K  NON-WETTABLE
   49   CONVERTIBLE      HARMONIC     1.000E+00    VERTICAL K  NON-WETTABLE
   50   CONVERTIBLE      HARMONIC     1.000E+00    VERTICAL K  NON-WETTABLE

    8360000 ELEMENTS IN X ARRAY ARE USED BY LPF
        300 ELEMENTS IN IX ARRAY ARE USED BY LPF

 PCG2 -- CONJUGATE GRADIENT SOLUTION PACKAGE, VERSION 2.4, 12/29/98
 # PCG package for SEAWAT generated by Flopy 3.3.6
 MAXIMUM OF     50 CALLS OF SOLUTION ROUTINE
 MAXIMUM OF     30 INTERNAL ITERATIONS PER CALL TO SOLUTION ROUTINE
 MATRIX PRECONDITIONING TYPE :    1
    4183000 ELEMENTS IN X ARRAY ARE USED BY PCG
      10500 ELEMENTS IN IX ARRAY ARE USED BY PCG
    8360000 ELEMENTS IN Z ARRAY ARE USED BY PCG

   12543000  ELEMENTS OF X ARRAY USED OUT OF   12543000
    8360000  ELEMENTS OF Z ARRAY USED OUT OF    8360000
      10800  ELEMENTS OF IX ARRAY USED OUT OF      10800
          0  ELEMENTS OF XHS ARRAY USED OUT OF          1



                                    SOLUTION BY THE CONJUGATE-GRADIENT METHOD
                                   -------------------------------------------
                    MAXIMUM NUMBER OF CALLS TO PCG ROUTINE =       50
                        MAXIMUM ITERATIONS PER CALL TO PCG =       30
                               MATRIX PRECONDITIONING TYPE =        1
        RELAXATION FACTOR (ONLY USED WITH PRECOND. TYPE 1) =    0.10000E+01
 PARAMETER OF POLYNOMIAL PRECOND. = 2 (2) OR IS CALCULATED :        0
                         HEAD CHANGE CRITERION FOR CLOSURE =    0.10000E-02
                     RESIDUAL CHANGE CRITERION FOR CLOSURE =    0.10000E-04
            PCG HEAD AND RESIDUAL CHANGE PRINTOUT INTERVAL =      999
     PRINTING FROM SOLVER IS LIMITED(1) OR SUPPRESSED (>1) =        3
                                         DAMPING PARAMETER =    0.10000E+01

 WETTING CAPABILITY IS NOT ACTIVE IN ANY LAYER

    HYD. COND. ALONG ROWS =   6.90000     FOR LAYER   1

      VERTICAL HYD. COND. =  0.100000     FOR LAYER   1

         SPECIFIC STORAGE =  2.000000E-04 FOR LAYER   1

           SPECIFIC YIELD =  0.330000     FOR LAYER   1

    HYD. COND. ALONG ROWS =   6.90000     FOR LAYER   2

      VERTICAL HYD. COND. =  0.100000     FOR LAYER   2

         SPECIFIC STORAGE =  2.000000E-04 FOR LAYER   2

           SPECIFIC YIELD =  0.330000     FOR LAYER   2

    HYD. COND. ALONG ROWS =   6.90000     FOR LAYER   3

      VERTICAL HYD. COND. =  0.100000     FOR LAYER   3

         SPECIFIC STORAGE =  2.000000E-04 FOR LAYER   3

           SPECIFIC YIELD =  0.330000     FOR LAYER   3

    HYD. COND. ALONG ROWS =   6.90000     FOR LAYER   4

      VERTICAL HYD. COND. =  0.100000     FOR LAYER   4

         SPECIFIC STORAGE =  2.000000E-04 FOR LAYER   4

           SPECIFIC YIELD =  0.330000     FOR LAYER   4

    HYD. COND. ALONG ROWS =   6.90000     FOR LAYER   5

      VERTICAL HYD. COND. =  0.100000     FOR LAYER   5

         SPECIFIC STORAGE =  2.000000E-04 FOR LAYER   5

           SPECIFIC YIELD =  0.330000     FOR LAYER   5

    HYD. COND. ALONG ROWS =   6.90000     FOR LAYER   6

      VERTICAL HYD. COND. =  0.100000     FOR LAYER   6

         SPECIFIC STORAGE =  2.000000E-04 FOR LAYER   6

           SPECIFIC YIELD =  0.330000     FOR LAYER   6

    HYD. COND. ALONG ROWS =   6.90000     FOR LAYER   7

      VERTICAL HYD. COND. =  0.100000     FOR LAYER   7

         SPECIFIC STORAGE =  2.000000E-04 FOR LAYER   7

           SPECIFIC YIELD =  0.330000     FOR LAYER   7

    HYD. COND. ALONG ROWS =   6.90000     FOR LAYER   8

      VERTICAL HYD. COND. =  0.100000     FOR LAYER   8

         SPECIFIC STORAGE =  2.000000E-04 FOR LAYER   8

           SPECIFIC YIELD =  0.330000     FOR LAYER   8

    HYD. COND. ALONG ROWS =   6.90000     FOR LAYER   9

      VERTICAL HYD. COND. =  0.100000     FOR LAYER   9

         SPECIFIC STORAGE =  2.000000E-04 FOR LAYER   9

           SPECIFIC YIELD =  0.330000     FOR LAYER   9

    HYD. COND. ALONG ROWS =   6.90000     FOR LAYER  10

      VERTICAL HYD. COND. =  0.100000     FOR LAYER  10

         SPECIFIC STORAGE =  2.000000E-04 FOR LAYER  10

           SPECIFIC YIELD =  0.330000     FOR LAYER  10

    HYD. COND. ALONG ROWS =   6.90000     FOR LAYER  11

      VERTICAL HYD. COND. =  0.100000     FOR LAYER  11

         SPECIFIC STORAGE =  2.000000E-04 FOR LAYER  11

           SPECIFIC YIELD =  0.330000     FOR LAYER  11

    HYD. COND. ALONG ROWS =   6.90000     FOR LAYER  12

      VERTICAL HYD. COND. =  0.100000     FOR LAYER  12

         SPECIFIC STORAGE =  2.000000E-04 FOR LAYER  12

           SPECIFIC YIELD =  0.330000     FOR LAYER  12

    HYD. COND. ALONG ROWS =   6.90000     FOR LAYER  13

      VERTICAL HYD. COND. =  0.100000     FOR LAYER  13

         SPECIFIC STORAGE =  2.000000E-04 FOR LAYER  13

           SPECIFIC YIELD =  0.330000     FOR LAYER  13

    HYD. COND. ALONG ROWS =   6.90000     FOR LAYER  14

      VERTICAL HYD. COND. =  0.100000     FOR LAYER  14

         SPECIFIC STORAGE =  2.000000E-04 FOR LAYER  14

           SPECIFIC YIELD =  0.330000     FOR LAYER  14

    HYD. COND. ALONG ROWS =   6.90000     FOR LAYER  15

      VERTICAL HYD. COND. =  0.100000     FOR LAYER  15

         SPECIFIC STORAGE =  2.000000E-04 FOR LAYER  15

           SPECIFIC YIELD =  0.330000     FOR LAYER  15

    HYD. COND. ALONG ROWS =   6.90000     FOR LAYER  16

      VERTICAL HYD. COND. =  0.100000     FOR LAYER  16

         SPECIFIC STORAGE =  2.000000E-04 FOR LAYER  16

           SPECIFIC YIELD =  0.330000     FOR LAYER  16

    HYD. COND. ALONG ROWS =   6.90000     FOR LAYER  17

      VERTICAL HYD. COND. =  0.100000     FOR LAYER  17

         SPECIFIC STORAGE =  2.000000E-04 FOR LAYER  17

           SPECIFIC YIELD =  0.330000     FOR LAYER  17

    HYD. COND. ALONG ROWS =   6.90000     FOR LAYER  18

      VERTICAL HYD. COND. =  0.100000     FOR LAYER  18

         SPECIFIC STORAGE =  2.000000E-04 FOR LAYER  18

           SPECIFIC YIELD =  0.330000     FOR LAYER  18

    HYD. COND. ALONG ROWS =   6.90000     FOR LAYER  19

      VERTICAL HYD. COND. =  0.100000     FOR LAYER  19

         SPECIFIC STORAGE =  2.000000E-04 FOR LAYER  19

           SPECIFIC YIELD =  0.330000     FOR LAYER  19

    HYD. COND. ALONG ROWS =   6.90000     FOR LAYER  20

      VERTICAL HYD. COND. =  0.100000     FOR LAYER  20

         SPECIFIC STORAGE =  2.000000E-04 FOR LAYER  20

           SPECIFIC YIELD =  0.330000     FOR LAYER  20

    HYD. COND. ALONG ROWS =   6.90000     FOR LAYER  21

      VERTICAL HYD. COND. =  0.100000     FOR LAYER  21

         SPECIFIC STORAGE =  2.000000E-04 FOR LAYER  21

           SPECIFIC YIELD =  0.330000     FOR LAYER  21

    HYD. COND. ALONG ROWS =   6.90000     FOR LAYER  22

      VERTICAL HYD. COND. =  0.100000     FOR LAYER  22

         SPECIFIC STORAGE =  2.000000E-04 FOR LAYER  22

           SPECIFIC YIELD =  0.330000     FOR LAYER  22

    HYD. COND. ALONG ROWS =   6.90000     FOR LAYER  23

      VERTICAL HYD. COND. =  0.100000     FOR LAYER  23

         SPECIFIC STORAGE =  2.000000E-04 FOR LAYER  23

           SPECIFIC YIELD =  0.330000     FOR LAYER  23

    HYD. COND. ALONG ROWS =   6.90000     FOR LAYER  24

      VERTICAL HYD. COND. =  0.100000     FOR LAYER  24

         SPECIFIC STORAGE =  2.000000E-04 FOR LAYER  24

           SPECIFIC YIELD =  0.330000     FOR LAYER  24

    HYD. COND. ALONG ROWS =   6.90000     FOR LAYER  25

      VERTICAL HYD. COND. =  0.100000     FOR LAYER  25

         SPECIFIC STORAGE =  2.000000E-04 FOR LAYER  25

           SPECIFIC YIELD =  0.330000     FOR LAYER  25

    HYD. COND. ALONG ROWS =   6.90000     FOR LAYER  26

      VERTICAL HYD. COND. =  0.100000     FOR LAYER  26

         SPECIFIC STORAGE =  2.000000E-04 FOR LAYER  26

           SPECIFIC YIELD =  0.330000     FOR LAYER  26

    HYD. COND. ALONG ROWS =   6.90000     FOR LAYER  27

      VERTICAL HYD. COND. =  0.100000     FOR LAYER  27

         SPECIFIC STORAGE =  2.000000E-04 FOR LAYER  27

           SPECIFIC YIELD =  0.330000     FOR LAYER  27

    HYD. COND. ALONG ROWS =   6.90000     FOR LAYER  28

      VERTICAL HYD. COND. =  0.100000     FOR LAYER  28

         SPECIFIC STORAGE =  2.000000E-04 FOR LAYER  28

           SPECIFIC YIELD =  0.330000     FOR LAYER  28

    HYD. COND. ALONG ROWS =   6.90000     FOR LAYER  29

      VERTICAL HYD. COND. =  0.100000     FOR LAYER  29

         SPECIFIC STORAGE =  2.000000E-04 FOR LAYER  29

           SPECIFIC YIELD =  0.330000     FOR LAYER  29

    HYD. COND. ALONG ROWS =   6.90000     FOR LAYER  30

      VERTICAL HYD. COND. =  0.100000     FOR LAYER  30

         SPECIFIC STORAGE =  2.000000E-04 FOR LAYER  30

           SPECIFIC YIELD =  0.330000     FOR LAYER  30

    HYD. COND. ALONG ROWS =   6.90000     FOR LAYER  31

      VERTICAL HYD. COND. =  0.100000     FOR LAYER  31

         SPECIFIC STORAGE =  2.000000E-04 FOR LAYER  31

           SPECIFIC YIELD =  0.330000     FOR LAYER  31

    HYD. COND. ALONG ROWS =   6.90000     FOR LAYER  32

      VERTICAL HYD. COND. =  0.100000     FOR LAYER  32

         SPECIFIC STORAGE =  2.000000E-04 FOR LAYER  32

           SPECIFIC YIELD =  0.330000     FOR LAYER  32

    HYD. COND. ALONG ROWS =   6.90000     FOR LAYER  33

      VERTICAL HYD. COND. =  0.100000     FOR LAYER  33

         SPECIFIC STORAGE =  2.000000E-04 FOR LAYER  33

           SPECIFIC YIELD =  0.330000     FOR LAYER  33

    HYD. COND. ALONG ROWS =   6.90000     FOR LAYER  34

      VERTICAL HYD. COND. =  0.100000     FOR LAYER  34

         SPECIFIC STORAGE =  2.000000E-04 FOR LAYER  34

           SPECIFIC YIELD =  0.330000     FOR LAYER  34

    HYD. COND. ALONG ROWS =   6.90000     FOR LAYER  35

      VERTICAL HYD. COND. =  0.100000     FOR LAYER  35

         SPECIFIC STORAGE =  2.000000E-04 FOR LAYER  35

           SPECIFIC YIELD =  0.330000     FOR LAYER  35

    HYD. COND. ALONG ROWS =   6.90000     FOR LAYER  36

      VERTICAL HYD. COND. =  0.100000     FOR LAYER  36

         SPECIFIC STORAGE =  2.000000E-04 FOR LAYER  36

           SPECIFIC YIELD =  0.330000     FOR LAYER  36

    HYD. COND. ALONG ROWS =   6.90000     FOR LAYER  37

      VERTICAL HYD. COND. =  0.100000     FOR LAYER  37

         SPECIFIC STORAGE =  2.000000E-04 FOR LAYER  37

           SPECIFIC YIELD =  0.330000     FOR LAYER  37

    HYD. COND. ALONG ROWS =   6.90000     FOR LAYER  38

      VERTICAL HYD. COND. =  0.100000     FOR LAYER  38

         SPECIFIC STORAGE =  2.000000E-04 FOR LAYER  38

           SPECIFIC YIELD =  0.330000     FOR LAYER  38

    HYD. COND. ALONG ROWS =   6.90000     FOR LAYER  39

      VERTICAL HYD. COND. =  0.100000     FOR LAYER  39

         SPECIFIC STORAGE =  2.000000E-04 FOR LAYER  39

           SPECIFIC YIELD =  0.330000     FOR LAYER  39

    HYD. COND. ALONG ROWS =   6.90000     FOR LAYER  40

      VERTICAL HYD. COND. =  0.100000     FOR LAYER  40

         SPECIFIC STORAGE =  2.000000E-04 FOR LAYER  40

           SPECIFIC YIELD =  0.330000     FOR LAYER  40

    HYD. COND. ALONG ROWS =   6.90000     FOR LAYER  41

      VERTICAL HYD. COND. =  0.100000     FOR LAYER  41

         SPECIFIC STORAGE =  2.000000E-04 FOR LAYER  41

           SPECIFIC YIELD =  0.330000     FOR LAYER  41

    HYD. COND. ALONG ROWS =   6.90000     FOR LAYER  42

      VERTICAL HYD. COND. =  0.100000     FOR LAYER  42

         SPECIFIC STORAGE =  2.000000E-04 FOR LAYER  42

           SPECIFIC YIELD =  0.330000     FOR LAYER  42

    HYD. COND. ALONG ROWS =   6.90000     FOR LAYER  43

      VERTICAL HYD. COND. =  0.100000     FOR LAYER  43

         SPECIFIC STORAGE =  2.000000E-04 FOR LAYER  43

           SPECIFIC YIELD =  0.330000     FOR LAYER  43

    HYD. COND. ALONG ROWS =   6.90000     FOR LAYER  44

      VERTICAL HYD. COND. =  0.100000     FOR LAYER  44

         SPECIFIC STORAGE =  2.000000E-04 FOR LAYER  44

           SPECIFIC YIELD =  0.330000     FOR LAYER  44

    HYD. COND. ALONG ROWS =   6.90000     FOR LAYER  45

      VERTICAL HYD. COND. =  0.100000     FOR LAYER  45

         SPECIFIC STORAGE =  2.000000E-04 FOR LAYER  45

           SPECIFIC YIELD =  0.330000     FOR LAYER  45

    HYD. COND. ALONG ROWS =   6.90000     FOR LAYER  46

      VERTICAL HYD. COND. =  0.100000     FOR LAYER  46

         SPECIFIC STORAGE =  2.000000E-04 FOR LAYER  46

           SPECIFIC YIELD =  0.330000     FOR LAYER  46

    HYD. COND. ALONG ROWS =   6.90000     FOR LAYER  47

      VERTICAL HYD. COND. =  0.100000     FOR LAYER  47

         SPECIFIC STORAGE =  2.000000E-04 FOR LAYER  47

           SPECIFIC YIELD =  0.330000     FOR LAYER  47

    HYD. COND. ALONG ROWS =   6.90000     FOR LAYER  48

      VERTICAL HYD. COND. =  0.100000     FOR LAYER  48

         SPECIFIC STORAGE =  2.000000E-04 FOR LAYER  48

           SPECIFIC YIELD =  0.330000     FOR LAYER  48

    HYD. COND. ALONG ROWS =   6.90000     FOR LAYER  49

      VERTICAL HYD. COND. =  0.100000     FOR LAYER  49

         SPECIFIC STORAGE =  2.000000E-04 FOR LAYER  49

           SPECIFIC YIELD =  0.330000     FOR LAYER  49

    HYD. COND. ALONG ROWS =   6.90000     FOR LAYER  50

      VERTICAL HYD. COND. =  0.100000     FOR LAYER  50

         SPECIFIC STORAGE =  2.000000E-04 FOR LAYER  50

           SPECIFIC YIELD =  0.330000     FOR LAYER  50
 BTN5 -- BASIC TRANSPORT PACKAGE, VERSION 5, OCTOBER 2006, INPUT READ FROM UNIT 31
   31392620 ELEMENTS OF THE  X ARRAY USED BY THE BTN PACKAGE
    2090050 ELEMENTS OF THE IX ARRAY USED BY THE BTN PACKAGE

 FLOW MODEL IS TRANSIENT

 ADV5 -- ADVECTION PACKAGE, VERSION 5, FEBRUARY 2005, INPUT READ FROM UNIT 32
 ADVECTION IS SOLVED WITH THE UPSTREAM FINITE DIFFERENCE SCHEME
 COURANT NUMBER ALLOWED IN SOLVING THE ADVECTION TERM = 0.400    
          0 ELEMENTS OF THE  X ARRAY USED BY THE ADV PACKAGE
          0 ELEMENTS OF THE IX ARRAY USED BY THE ADV PACKAGE

 DSP5 -- DISPERSION PACKAGE, VERSION 5, OCTOBER 2006, INPUT READ FROM UNIT 33
   22990100 ELEMENTS OF THE  X ARRAY USED BY THE DSP PACKAGE
          0 ELEMENTS OF THE IX ARRAY USED BY THE DSP PACKAGE

 SSM5 -- SINK & SOURCE MIXING PACKAGE, VERSION 5, OCTOBER 2006, INPUT READ FROM UNIT 34
 HEADER LINE OF THE SSM PACKAGE INPUT FILE:
  T F F F F F F F F F F F F F F F                                                                                                                                                                        
 MAJOR STRESS COMPONENTS PRESENT IN THE FLOW MODEL:
  o WELL
 MAXIMUM NUMBER OF POINT SINKS/SOURCES =   14302
     185926 ELEMENTS OF THE  X ARRAY USED BY THE SSM PACKAGE
          0 ELEMENTS OF THE IX ARRAY BY THE SSM PACKAGE

 RCT5 -- CHEMICAL REACTION PACKAGE, VERSION 5, FEBRUARY 2005, INPUT READ FROM UNIT 36
 TYPE OF SORPTION SELECTED IS [LANGMUIR]
 NO FIRST-ORDER RATE REACTION IS SIMULATED
 REACTION COEFFICIENTS ASSIGNED CELL-BY-CELL
 INITIAL SORBED/IMMOBILE PHASE CONCENTRATION ASSIGNED BY DEFAULT
    6270000 ELEMENTS OF THE  X ARRAY USED BY THE RCT PACKAGE
          0 ELEMENTS OF THE IX ARRAY USED BY THE RCT PACKAGE

 GCG5 -- GENERALIZED CONJUGATE GRADIENT SOLVER PACKAGE, VERSION 5, FEBRUARY 2005 INPUT READ FROM UNIT 35
 MAXIMUM OF    1 OUTER ITERATIONS
        AND   50 INNER ITERATIONS ALLOWED FOR CLOSURE
 THE PRECONDITIONING TYPE SELECTED IS SSOR.
 DISPERSION CROSS TERMS LUMPED INTO RIGHT-HAND-SIDE
   31350050 ELEMENTS OF THE  X ARRAY USED BY THE GCG PACKAGE
        150 ELEMENTS OF THE IX ARRAY USED BY THE GCG PACKAGE

 
 # BAS6 package for SEAWAT generated by Flopy 3.3.6                              
 THE FREE FORMAT OPTION HAS BEEN SELECTED
   50 LAYERS       190 ROWS       220 COLUMNS
    7 STRESS PERIOD(S) IN SIMULATION

 BAS6 -- BASIC PACKAGE, VERSION 6, 1/11/2000 INPUT READ FROM UNIT   13
        250 ELEMENTS IN IR ARRAY ARE USED BY BAS

 WEL6 -- WELL PACKAGE, VERSION 6, 1/11/2000 INPUT READ FROM UNIT   20
 # WEL package for SEAWAT generated by Flopy 3.3.6
 No named parameters
 MAXIMUM OF      2 ACTIVE WELLS AT ONE TIME
 CELL-BY-CELL FLOWS WILL BE SAVED ON UNIT   53
          8 ELEMENTS IN RX ARRAY ARE USED BY WEL

          8  ELEMENTS OF RX ARRAY USED OUT OF          8
          0  ELEMENTS OF RZ ARRAY USED OUT OF          1
        250  ELEMENTS OF IR ARRAY USED OUT OF        250
1
 # BAS6 package for SEAWAT generated by Flopy 3.3.6                              
                                                                                 



                     BOUNDARY ARRAY FOR LAYER   1
 READING ON UNIT   13 WITH FORMAT:            (220I10) 



                     BOUNDARY ARRAY FOR LAYER   2
 READING ON UNIT   13 WITH FORMAT:            (220I10) 



                     BOUNDARY ARRAY FOR LAYER   3
 READING ON UNIT   13 WITH FORMAT:            (220I10) 



                     BOUNDARY ARRAY FOR LAYER   4
 READING ON UNIT   13 WITH FORMAT:            (220I10) 



                     BOUNDARY ARRAY FOR LAYER   5
 READING ON UNIT   13 WITH FORMAT:            (220I10) 



                     BOUNDARY ARRAY FOR LAYER   6
 READING ON UNIT   13 WITH FORMAT:            (220I10) 



                     BOUNDARY ARRAY FOR LAYER   7
 READING ON UNIT   13 WITH FORMAT:            (220I10) 



                     BOUNDARY ARRAY FOR LAYER   8
 READING ON UNIT   13 WITH FORMAT:            (220I10) 



                     BOUNDARY ARRAY FOR LAYER   9
 READING ON UNIT   13 WITH FORMAT:            (220I10) 



                     BOUNDARY ARRAY FOR LAYER  10
 READING ON UNIT   13 WITH FORMAT:            (220I10) 



                     BOUNDARY ARRAY FOR LAYER  11
 READING ON UNIT   13 WITH FORMAT:            (220I10) 



                     BOUNDARY ARRAY FOR LAYER  12
 READING ON UNIT   13 WITH FORMAT:            (220I10) 



                     BOUNDARY ARRAY FOR LAYER  13
 READING ON UNIT   13 WITH FORMAT:            (220I10) 



                     BOUNDARY ARRAY FOR LAYER  14
 READING ON UNIT   13 WITH FORMAT:            (220I10) 



                     BOUNDARY ARRAY FOR LAYER  15
 READING ON UNIT   13 WITH FORMAT:            (220I10) 



                     BOUNDARY ARRAY FOR LAYER  16
 READING ON UNIT   13 WITH FORMAT:            (220I10) 



                     BOUNDARY ARRAY FOR LAYER  17
 READING ON UNIT   13 WITH FORMAT:            (220I10) 



                     BOUNDARY ARRAY FOR LAYER  18
 READING ON UNIT   13 WITH FORMAT:            (220I10) 



                     BOUNDARY ARRAY FOR LAYER  19
 READING ON UNIT   13 WITH FORMAT:            (220I10) 



                     BOUNDARY ARRAY FOR LAYER  20
 READING ON UNIT   13 WITH FORMAT:            (220I10) 



                     BOUNDARY ARRAY FOR LAYER  21
 READING ON UNIT   13 WITH FORMAT:            (220I10) 



                     BOUNDARY ARRAY FOR LAYER  22
 READING ON UNIT   13 WITH FORMAT:            (220I10) 



                     BOUNDARY ARRAY FOR LAYER  23
 READING ON UNIT   13 WITH FORMAT:            (220I10) 



                     BOUNDARY ARRAY FOR LAYER  24
 READING ON UNIT   13 WITH FORMAT:            (220I10) 



                     BOUNDARY ARRAY FOR LAYER  25
 READING ON UNIT   13 WITH FORMAT:            (220I10) 



                     BOUNDARY ARRAY FOR LAYER  26
 READING ON UNIT   13 WITH FORMAT:            (220I10) 



                     BOUNDARY ARRAY FOR LAYER  27
 READING ON UNIT   13 WITH FORMAT:            (220I10) 



                     BOUNDARY ARRAY FOR LAYER  28
 READING ON UNIT   13 WITH FORMAT:            (220I10) 



                     BOUNDARY ARRAY FOR LAYER  29
 READING ON UNIT   13 WITH FORMAT:            (220I10) 



                     BOUNDARY ARRAY FOR LAYER  30
 READING ON UNIT   13 WITH FORMAT:            (220I10) 



                     BOUNDARY ARRAY FOR LAYER  31
 READING ON UNIT   13 WITH FORMAT:            (220I10) 



                     BOUNDARY ARRAY FOR LAYER  32
 READING ON UNIT   13 WITH FORMAT:            (220I10) 



                     BOUNDARY ARRAY FOR LAYER  33
 READING ON UNIT   13 WITH FORMAT:            (220I10) 



                     BOUNDARY ARRAY FOR LAYER  34
 READING ON UNIT   13 WITH FORMAT:            (220I10) 



                     BOUNDARY ARRAY FOR LAYER  35
 READING ON UNIT   13 WITH FORMAT:            (220I10) 



                     BOUNDARY ARRAY FOR LAYER  36
 READING ON UNIT   13 WITH FORMAT:            (220I10) 



                     BOUNDARY ARRAY FOR LAYER  37
 READING ON UNIT   13 WITH FORMAT:            (220I10) 



                     BOUNDARY ARRAY FOR LAYER  38
 READING ON UNIT   13 WITH FORMAT:            (220I10) 



                     BOUNDARY ARRAY FOR LAYER  39
 READING ON UNIT   13 WITH FORMAT:            (220I10) 



                     BOUNDARY ARRAY FOR LAYER  40
 READING ON UNIT   13 WITH FORMAT:            (220I10) 



                     BOUNDARY ARRAY FOR LAYER  41
 READING ON UNIT   13 WITH FORMAT:            (220I10) 



                     BOUNDARY ARRAY FOR LAYER  42
 READING ON UNIT   13 WITH FORMAT:            (220I10) 



                     BOUNDARY ARRAY FOR LAYER  43
 READING ON UNIT   13 WITH FORMAT:            (220I10) 



                     BOUNDARY ARRAY FOR LAYER  44
 READING ON UNIT   13 WITH FORMAT:            (220I10) 



                     BOUNDARY ARRAY FOR LAYER  45
 READING ON UNIT   13 WITH FORMAT:            (220I10) 



                     BOUNDARY ARRAY FOR LAYER  46
 READING ON UNIT   13 WITH FORMAT:            (220I10) 



                     BOUNDARY ARRAY FOR LAYER  47
 READING ON UNIT   13 WITH FORMAT:            (220I10) 



                     BOUNDARY ARRAY FOR LAYER  48
 READING ON UNIT   13 WITH FORMAT:            (220I10) 



                     BOUNDARY ARRAY FOR LAYER  49
 READING ON UNIT   13 WITH FORMAT:            (220I10) 



                     BOUNDARY ARRAY FOR LAYER  50
 READING ON UNIT   13 WITH FORMAT:            (220I10) 

 AQUIFER HEAD WILL BE SET TO -999.99     AT ALL NO-FLOW NODES (IBOUND=0).



                       INITIAL HEAD FOR LAYER   1
 READING ON UNIT   13 WITH FORMAT:          (220E15.6) 



                       INITIAL HEAD FOR LAYER   2
 READING ON UNIT   13 WITH FORMAT:          (220E15.6) 



                       INITIAL HEAD FOR LAYER   3
 READING ON UNIT   13 WITH FORMAT:          (220E15.6) 



                       INITIAL HEAD FOR LAYER   4
 READING ON UNIT   13 WITH FORMAT:          (220E15.6) 



                       INITIAL HEAD FOR LAYER   5
 READING ON UNIT   13 WITH FORMAT:          (220E15.6) 



                       INITIAL HEAD FOR LAYER   6
 READING ON UNIT   13 WITH FORMAT:          (220E15.6) 



                       INITIAL HEAD FOR LAYER   7
 READING ON UNIT   13 WITH FORMAT:          (220E15.6) 



                       INITIAL HEAD FOR LAYER   8
 READING ON UNIT   13 WITH FORMAT:          (220E15.6) 



                       INITIAL HEAD FOR LAYER   9
 READING ON UNIT   13 WITH FORMAT:          (220E15.6) 



                       INITIAL HEAD FOR LAYER  10
 READING ON UNIT   13 WITH FORMAT:          (220E15.6) 



                       INITIAL HEAD FOR LAYER  11
 READING ON UNIT   13 WITH FORMAT:          (220E15.6) 



                       INITIAL HEAD FOR LAYER  12
 READING ON UNIT   13 WITH FORMAT:          (220E15.6) 



                       INITIAL HEAD FOR LAYER  13
 READING ON UNIT   13 WITH FORMAT:          (220E15.6) 



                       INITIAL HEAD FOR LAYER  14
 READING ON UNIT   13 WITH FORMAT:          (220E15.6) 



                       INITIAL HEAD FOR LAYER  15
 READING ON UNIT   13 WITH FORMAT:          (220E15.6) 



                       INITIAL HEAD FOR LAYER  16
 READING ON UNIT   13 WITH FORMAT:          (220E15.6) 



                       INITIAL HEAD FOR LAYER  17
 READING ON UNIT   13 WITH FORMAT:          (220E15.6) 



                       INITIAL HEAD FOR LAYER  18
 READING ON UNIT   13 WITH FORMAT:          (220E15.6) 



                       INITIAL HEAD FOR LAYER  19
 READING ON UNIT   13 WITH FORMAT:          (220E15.6) 



                       INITIAL HEAD FOR LAYER  20
 READING ON UNIT   13 WITH FORMAT:          (220E15.6) 



                       INITIAL HEAD FOR LAYER  21
 READING ON UNIT   13 WITH FORMAT:          (220E15.6) 



                       INITIAL HEAD FOR LAYER  22
 READING ON UNIT   13 WITH FORMAT:          (220E15.6) 



                       INITIAL HEAD FOR LAYER  23
 READING ON UNIT   13 WITH FORMAT:          (220E15.6) 



                       INITIAL HEAD FOR LAYER  24
 READING ON UNIT   13 WITH FORMAT:          (220E15.6) 



                       INITIAL HEAD FOR LAYER  25
 READING ON UNIT   13 WITH FORMAT:          (220E15.6) 



                       INITIAL HEAD FOR LAYER  26
 READING ON UNIT   13 WITH FORMAT:          (220E15.6) 



                       INITIAL HEAD FOR LAYER  27
 READING ON UNIT   13 WITH FORMAT:          (220E15.6) 



                       INITIAL HEAD FOR LAYER  28
 READING ON UNIT   13 WITH FORMAT:          (220E15.6) 



                       INITIAL HEAD FOR LAYER  29
 READING ON UNIT   13 WITH FORMAT:          (220E15.6) 



                       INITIAL HEAD FOR LAYER  30
 READING ON UNIT   13 WITH FORMAT:          (220E15.6) 



                       INITIAL HEAD FOR LAYER  31
 READING ON UNIT   13 WITH FORMAT:          (220E15.6) 



                       INITIAL HEAD FOR LAYER  32
 READING ON UNIT   13 WITH FORMAT:          (220E15.6) 



                       INITIAL HEAD FOR LAYER  33
 READING ON UNIT   13 WITH FORMAT:          (220E15.6) 



                       INITIAL HEAD FOR LAYER  34
 READING ON UNIT   13 WITH FORMAT:          (220E15.6) 



                       INITIAL HEAD FOR LAYER  35
 READING ON UNIT   13 WITH FORMAT:          (220E15.6) 



                       INITIAL HEAD FOR LAYER  36
 READING ON UNIT   13 WITH FORMAT:          (220E15.6) 



                       INITIAL HEAD FOR LAYER  37
 READING ON UNIT   13 WITH FORMAT:          (220E15.6) 



                       INITIAL HEAD FOR LAYER  38
 READING ON UNIT   13 WITH FORMAT:          (220E15.6) 



                       INITIAL HEAD FOR LAYER  39
 READING ON UNIT   13 WITH FORMAT:          (220E15.6) 



                       INITIAL HEAD FOR LAYER  40
 READING ON UNIT   13 WITH FORMAT:          (220E15.6) 



                       INITIAL HEAD FOR LAYER  41
 READING ON UNIT   13 WITH FORMAT:          (220E15.6) 



                       INITIAL HEAD FOR LAYER  42
 READING ON UNIT   13 WITH FORMAT:          (220E15.6) 



                       INITIAL HEAD FOR LAYER  43
 READING ON UNIT   13 WITH FORMAT:          (220E15.6) 



                       INITIAL HEAD FOR LAYER  44
 READING ON UNIT   13 WITH FORMAT:          (220E15.6) 



                       INITIAL HEAD FOR LAYER  45
 READING ON UNIT   13 WITH FORMAT:          (220E15.6) 



                       INITIAL HEAD FOR LAYER  46
 READING ON UNIT   13 WITH FORMAT:          (220E15.6) 



                       INITIAL HEAD FOR LAYER  47
 READING ON UNIT   13 WITH FORMAT:          (220E15.6) 



                       INITIAL HEAD FOR LAYER  48
 READING ON UNIT   13 WITH FORMAT:          (220E15.6) 



                       INITIAL HEAD FOR LAYER  49
 READING ON UNIT   13 WITH FORMAT:          (220E15.6) 



                       INITIAL HEAD FOR LAYER  50
 READING ON UNIT   13 WITH FORMAT:          (220E15.6) 
 # OC package for SEAWAT generated by Flopy 3.3.6

 OUTPUT CONTROL IS SPECIFIED ONLY AT TIME STEPS FOR WHICH OUTPUT IS DESIRED
 COMPACT CELL-BY-CELL BUDGET FILES WILL BE WRITTEN
 AUXILIARY DATA WILL BE SAVED IN CELL-BY-CELL BUDGET FILES
 HEAD PRINT FORMAT CODE IS   0    DRAWDOWN PRINT FORMAT CODE IS   0
 HEADS WILL BE SAVED ON UNIT   51    DRAWDOWNS WILL BE SAVED ON UNIT    0


     0 Well parameters
 LAYER NUMBER  AQUIFER TYPE
 ------------  ------------
       1            1
       2            1
       3            1
       4            1
       5            1
       6            1
       7            1
       8            1
       9            1
      10            1
      11            1
      12            1
      13            1
      14            1
      15            1
      16            1
      17            1
      18            1
      19            1
      20            1
      21            1
      22            1
      23            1
      24            1
      25            1
      26            1
      27            1
      28            1
      29            1
      30            1
      31            1
      32            1
      33            1
      34            1
      35            1
      36            1
      37            1
      38            1
      39            1
      40            1
      41            1
      42            1
      43            1
      44            1
      45            1
      46            1
      47            1
      48            1
      49            1
      50            1
                                       WIDTH ALONG ROWS (DELR)  =   12.00000    
                                       WIDTH ALONG COLS (DELC)  =   12.00000    
                                       TOP ELEV. OF 1ST LAYER   =   190.0000    

                     CELL THICKNESS (DZ)      FOR LAYER  1 READ ON UNIT 31 USING FORMAT: "         (220E15.6) "
                     ------------------------------------------------------------------------------------------

                     CELL THICKNESS (DZ)      FOR LAYER  2 READ ON UNIT 31 USING FORMAT: "         (220E15.6) "
                     ------------------------------------------------------------------------------------------

                     CELL THICKNESS (DZ)      FOR LAYER  3 READ ON UNIT 31 USING FORMAT: "         (220E15.6) "
                     ------------------------------------------------------------------------------------------

                     CELL THICKNESS (DZ)      FOR LAYER  4 READ ON UNIT 31 USING FORMAT: "         (220E15.6) "
                     ------------------------------------------------------------------------------------------

                     CELL THICKNESS (DZ)      FOR LAYER  5 READ ON UNIT 31 USING FORMAT: "         (220E15.6) "
                     ------------------------------------------------------------------------------------------

                     CELL THICKNESS (DZ)      FOR LAYER  6 READ ON UNIT 31 USING FORMAT: "         (220E15.6) "
                     ------------------------------------------------------------------------------------------

                     CELL THICKNESS (DZ)      FOR LAYER  7 READ ON UNIT 31 USING FORMAT: "         (220E15.6) "
                     ------------------------------------------------------------------------------------------

                     CELL THICKNESS (DZ)      FOR LAYER  8 READ ON UNIT 31 USING FORMAT: "         (220E15.6) "
                     ------------------------------------------------------------------------------------------

                     CELL THICKNESS (DZ)      FOR LAYER  9 READ ON UNIT 31 USING FORMAT: "         (220E15.6) "
                     ------------------------------------------------------------------------------------------

                     CELL THICKNESS (DZ)      FOR LAYER 10 READ ON UNIT 31 USING FORMAT: "         (220E15.6) "
                     ------------------------------------------------------------------------------------------

                     CELL THICKNESS (DZ)      FOR LAYER 11 READ ON UNIT 31 USING FORMAT: "         (220E15.6) "
                     ------------------------------------------------------------------------------------------

                     CELL THICKNESS (DZ)      FOR LAYER 12 READ ON UNIT 31 USING FORMAT: "         (220E15.6) "
                     ------------------------------------------------------------------------------------------

                     CELL THICKNESS (DZ)      FOR LAYER 13 READ ON UNIT 31 USING FORMAT: "         (220E15.6) "
                     ------------------------------------------------------------------------------------------

                     CELL THICKNESS (DZ)      FOR LAYER 14 READ ON UNIT 31 USING FORMAT: "         (220E15.6) "
                     ------------------------------------------------------------------------------------------

                     CELL THICKNESS (DZ)      FOR LAYER 15 READ ON UNIT 31 USING FORMAT: "         (220E15.6) "
                     ------------------------------------------------------------------------------------------

                     CELL THICKNESS (DZ)      FOR LAYER 16 READ ON UNIT 31 USING FORMAT: "         (220E15.6) "
                     ------------------------------------------------------------------------------------------

                     CELL THICKNESS (DZ)      FOR LAYER 17 READ ON UNIT 31 USING FORMAT: "         (220E15.6) "
                     ------------------------------------------------------------------------------------------

                     CELL THICKNESS (DZ)      FOR LAYER 18 READ ON UNIT 31 USING FORMAT: "         (220E15.6) "
                     ------------------------------------------------------------------------------------------

                     CELL THICKNESS (DZ)      FOR LAYER 19 READ ON UNIT 31 USING FORMAT: "         (220E15.6) "
                     ------------------------------------------------------------------------------------------

                     CELL THICKNESS (DZ)      FOR LAYER 20 READ ON UNIT 31 USING FORMAT: "         (220E15.6) "
                     ------------------------------------------------------------------------------------------

                     CELL THICKNESS (DZ)      FOR LAYER 21 READ ON UNIT 31 USING FORMAT: "         (220E15.6) "
                     ------------------------------------------------------------------------------------------

                     CELL THICKNESS (DZ)      FOR LAYER 22 READ ON UNIT 31 USING FORMAT: "         (220E15.6) "
                     ------------------------------------------------------------------------------------------

                     CELL THICKNESS (DZ)      FOR LAYER 23 READ ON UNIT 31 USING FORMAT: "         (220E15.6) "
                     ------------------------------------------------------------------------------------------

                     CELL THICKNESS (DZ)      FOR LAYER 24 READ ON UNIT 31 USING FORMAT: "         (220E15.6) "
                     ------------------------------------------------------------------------------------------

                     CELL THICKNESS (DZ)      FOR LAYER 25 READ ON UNIT 31 USING FORMAT: "         (220E15.6) "
                     ------------------------------------------------------------------------------------------

                     CELL THICKNESS (DZ)      FOR LAYER 26 READ ON UNIT 31 USING FORMAT: "         (220E15.6) "
                     ------------------------------------------------------------------------------------------

                     CELL THICKNESS (DZ)      FOR LAYER 27 READ ON UNIT 31 USING FORMAT: "         (220E15.6) "
                     ------------------------------------------------------------------------------------------

                     CELL THICKNESS (DZ)      FOR LAYER 28 READ ON UNIT 31 USING FORMAT: "         (220E15.6) "
                     ------------------------------------------------------------------------------------------

                     CELL THICKNESS (DZ)      FOR LAYER 29 READ ON UNIT 31 USING FORMAT: "         (220E15.6) "
                     ------------------------------------------------------------------------------------------

                     CELL THICKNESS (DZ)      FOR LAYER 30 READ ON UNIT 31 USING FORMAT: "         (220E15.6) "
                     ------------------------------------------------------------------------------------------

                     CELL THICKNESS (DZ)      FOR LAYER 31 READ ON UNIT 31 USING FORMAT: "         (220E15.6) "
                     ------------------------------------------------------------------------------------------

                     CELL THICKNESS (DZ)      FOR LAYER 32 READ ON UNIT 31 USING FORMAT: "         (220E15.6) "
                     ------------------------------------------------------------------------------------------

                     CELL THICKNESS (DZ)      FOR LAYER 33 READ ON UNIT 31 USING FORMAT: "         (220E15.6) "
                     ------------------------------------------------------------------------------------------

                     CELL THICKNESS (DZ)      FOR LAYER 34 READ ON UNIT 31 USING FORMAT: "         (220E15.6) "
                     ------------------------------------------------------------------------------------------

                     CELL THICKNESS (DZ)      FOR LAYER 35 READ ON UNIT 31 USING FORMAT: "         (220E15.6) "
                     ------------------------------------------------------------------------------------------

                     CELL THICKNESS (DZ)      FOR LAYER 36 READ ON UNIT 31 USING FORMAT: "         (220E15.6) "
                     ------------------------------------------------------------------------------------------

                     CELL THICKNESS (DZ)      FOR LAYER 37 READ ON UNIT 31 USING FORMAT: "         (220E15.6) "
                     ------------------------------------------------------------------------------------------

                     CELL THICKNESS (DZ)      FOR LAYER 38 READ ON UNIT 31 USING FORMAT: "         (220E15.6) "
                     ------------------------------------------------------------------------------------------

                     CELL THICKNESS (DZ)      FOR LAYER 39 READ ON UNIT 31 USING FORMAT: "         (220E15.6) "
                     ------------------------------------------------------------------------------------------

                     CELL THICKNESS (DZ)      FOR LAYER 40 READ ON UNIT 31 USING FORMAT: "         (220E15.6) "
                     ------------------------------------------------------------------------------------------

                     CELL THICKNESS (DZ)      FOR LAYER 41 READ ON UNIT 31 USING FORMAT: "         (220E15.6) "
                     ------------------------------------------------------------------------------------------

                     CELL THICKNESS (DZ)      FOR LAYER 42 READ ON UNIT 31 USING FORMAT: "         (220E15.6) "
                     ------------------------------------------------------------------------------------------

                     CELL THICKNESS (DZ)      FOR LAYER 43 READ ON UNIT 31 USING FORMAT: "         (220E15.6) "
                     ------------------------------------------------------------------------------------------

                     CELL THICKNESS (DZ)      FOR LAYER 44 READ ON UNIT 31 USING FORMAT: "         (220E15.6) "
                     ------------------------------------------------------------------------------------------

                     CELL THICKNESS (DZ)      FOR LAYER 45 READ ON UNIT 31 USING FORMAT: "         (220E15.6) "
                     ------------------------------------------------------------------------------------------

                     CELL THICKNESS (DZ)      FOR LAYER 46 READ ON UNIT 31 USING FORMAT: "         (220E15.6) "
                     ------------------------------------------------------------------------------------------

                     CELL THICKNESS (DZ)      FOR LAYER 47 READ ON UNIT 31 USING FORMAT: "         (220E15.6) "
                     ------------------------------------------------------------------------------------------

                     CELL THICKNESS (DZ)      FOR LAYER 48 READ ON UNIT 31 USING FORMAT: "         (220E15.6) "
                     ------------------------------------------------------------------------------------------

                     CELL THICKNESS (DZ)      FOR LAYER 49 READ ON UNIT 31 USING FORMAT: "         (220E15.6) "
                     ------------------------------------------------------------------------------------------

                     CELL THICKNESS (DZ)      FOR LAYER 50 READ ON UNIT 31 USING FORMAT: "         (220E15.6) "
                     ------------------------------------------------------------------------------------------
                                       POROSITY                 =  0.2500000     FOR LAYER  1
                                       POROSITY                 =  0.2500000     FOR LAYER  2
                                       POROSITY                 =  0.2500000     FOR LAYER  3
                                       POROSITY                 =  0.2500000     FOR LAYER  4
                                       POROSITY                 =  0.2500000     FOR LAYER  5
                                       POROSITY                 =  0.2500000     FOR LAYER  6
                                       POROSITY                 =  0.2500000     FOR LAYER  7
                                       POROSITY                 =  0.2500000     FOR LAYER  8
                                       POROSITY                 =  0.2500000     FOR LAYER  9
                                       POROSITY                 =  0.2500000     FOR LAYER 10
                                       POROSITY                 =  0.2500000     FOR LAYER 11
                                       POROSITY                 =  0.2500000     FOR LAYER 12
                                       POROSITY                 =  0.2500000     FOR LAYER 13
                                       POROSITY                 =  0.2500000     FOR LAYER 14
                                       POROSITY                 =  0.2500000     FOR LAYER 15
                                       POROSITY                 =  0.2500000     FOR LAYER 16
                                       POROSITY                 =  0.2500000     FOR LAYER 17
                                       POROSITY                 =  0.2500000     FOR LAYER 18
                                       POROSITY                 =  0.2500000     FOR LAYER 19
                                       POROSITY                 =  0.2500000     FOR LAYER 20
                                       POROSITY                 =  0.2500000     FOR LAYER 21
                                       POROSITY                 =  0.2500000     FOR LAYER 22
                                       POROSITY                 =  0.2500000     FOR LAYER 23
                                       POROSITY                 =  0.2500000     FOR LAYER 24
                                       POROSITY                 =  0.2500000     FOR LAYER 25
                                       POROSITY                 =  0.2500000     FOR LAYER 26
                                       POROSITY                 =  0.2500000     FOR LAYER 27
                                       POROSITY                 =  0.2500000     FOR LAYER 28
                                       POROSITY                 =  0.2500000     FOR LAYER 29
                                       POROSITY                 =  0.2500000     FOR LAYER 30
                                       POROSITY                 =  0.2500000     FOR LAYER 31
                                       POROSITY                 =  0.2500000     FOR LAYER 32
                                       POROSITY                 =  0.2500000     FOR LAYER 33
                                       POROSITY                 =  0.2500000     FOR LAYER 34
                                       POROSITY                 =  0.2500000     FOR LAYER 35
                                       POROSITY                 =  0.2500000     FOR LAYER 36
                                       POROSITY                 =  0.2500000     FOR LAYER 37
                                       POROSITY                 =  0.2500000     FOR LAYER 38
                                       POROSITY                 =  0.2500000     FOR LAYER 39
                                       POROSITY                 =  0.2500000     FOR LAYER 40
                                       POROSITY                 =  0.2500000     FOR LAYER 41
                                       POROSITY                 =  0.2500000     FOR LAYER 42
                                       POROSITY                 =  0.2500000     FOR LAYER 43
                                       POROSITY                 =  0.2500000     FOR LAYER 44
                                       POROSITY                 =  0.2500000     FOR LAYER 45
                                       POROSITY                 =  0.2500000     FOR LAYER 46
                                       POROSITY                 =  0.2500000     FOR LAYER 47
                                       POROSITY                 =  0.2500000     FOR LAYER 48
                                       POROSITY                 =  0.2500000     FOR LAYER 49
                                       POROSITY                 =  0.2500000     FOR LAYER 50

                     CONCN. BOUNDARY ARRAY    FOR LAYER  1 READ ON UNIT 31 USING FORMAT: "           (220I10) "
                     ------------------------------------------------------------------------------------------

                     CONCN. BOUNDARY ARRAY    FOR LAYER  2 READ ON UNIT 31 USING FORMAT: "           (220I10) "
                     ------------------------------------------------------------------------------------------

                     CONCN. BOUNDARY ARRAY    FOR LAYER  3 READ ON UNIT 31 USING FORMAT: "           (220I10) "
                     ------------------------------------------------------------------------------------------

                     CONCN. BOUNDARY ARRAY    FOR LAYER  4 READ ON UNIT 31 USING FORMAT: "           (220I10) "
                     ------------------------------------------------------------------------------------------

                     CONCN. BOUNDARY ARRAY    FOR LAYER  5 READ ON UNIT 31 USING FORMAT: "           (220I10) "
                     ------------------------------------------------------------------------------------------

                     CONCN. BOUNDARY ARRAY    FOR LAYER  6 READ ON UNIT 31 USING FORMAT: "           (220I10) "
                     ------------------------------------------------------------------------------------------

                     CONCN. BOUNDARY ARRAY    FOR LAYER  7 READ ON UNIT 31 USING FORMAT: "           (220I10) "
                     ------------------------------------------------------------------------------------------

                     CONCN. BOUNDARY ARRAY    FOR LAYER  8 READ ON UNIT 31 USING FORMAT: "           (220I10) "
                     ------------------------------------------------------------------------------------------

                     CONCN. BOUNDARY ARRAY    FOR LAYER  9 READ ON UNIT 31 USING FORMAT: "           (220I10) "
                     ------------------------------------------------------------------------------------------

                     CONCN. BOUNDARY ARRAY    FOR LAYER 10 READ ON UNIT 31 USING FORMAT: "           (220I10) "
                     ------------------------------------------------------------------------------------------

                     CONCN. BOUNDARY ARRAY    FOR LAYER 11 READ ON UNIT 31 USING FORMAT: "           (220I10) "
                     ------------------------------------------------------------------------------------------

                     CONCN. BOUNDARY ARRAY    FOR LAYER 12 READ ON UNIT 31 USING FORMAT: "           (220I10) "
                     ------------------------------------------------------------------------------------------

                     CONCN. BOUNDARY ARRAY    FOR LAYER 13 READ ON UNIT 31 USING FORMAT: "           (220I10) "
                     ------------------------------------------------------------------------------------------

                     CONCN. BOUNDARY ARRAY    FOR LAYER 14 READ ON UNIT 31 USING FORMAT: "           (220I10) "
                     ------------------------------------------------------------------------------------------

                     CONCN. BOUNDARY ARRAY    FOR LAYER 15 READ ON UNIT 31 USING FORMAT: "           (220I10) "
                     ------------------------------------------------------------------------------------------

                     CONCN. BOUNDARY ARRAY    FOR LAYER 16 READ ON UNIT 31 USING FORMAT: "           (220I10) "
                     ------------------------------------------------------------------------------------------

                     CONCN. BOUNDARY ARRAY    FOR LAYER 17 READ ON UNIT 31 USING FORMAT: "           (220I10) "
                     ------------------------------------------------------------------------------------------

                     CONCN. BOUNDARY ARRAY    FOR LAYER 18 READ ON UNIT 31 USING FORMAT: "           (220I10) "
                     ------------------------------------------------------------------------------------------

                     CONCN. BOUNDARY ARRAY    FOR LAYER 19 READ ON UNIT 31 USING FORMAT: "           (220I10) "
                     ------------------------------------------------------------------------------------------

                     CONCN. BOUNDARY ARRAY    FOR LAYER 20 READ ON UNIT 31 USING FORMAT: "           (220I10) "
                     ------------------------------------------------------------------------------------------

                     CONCN. BOUNDARY ARRAY    FOR LAYER 21 READ ON UNIT 31 USING FORMAT: "           (220I10) "
                     ------------------------------------------------------------------------------------------

                     CONCN. BOUNDARY ARRAY    FOR LAYER 22 READ ON UNIT 31 USING FORMAT: "           (220I10) "
                     ------------------------------------------------------------------------------------------

                     CONCN. BOUNDARY ARRAY    FOR LAYER 23 READ ON UNIT 31 USING FORMAT: "           (220I10) "
                     ------------------------------------------------------------------------------------------

                     CONCN. BOUNDARY ARRAY    FOR LAYER 24 READ ON UNIT 31 USING FORMAT: "           (220I10) "
                     ------------------------------------------------------------------------------------------

                     CONCN. BOUNDARY ARRAY    FOR LAYER 25 READ ON UNIT 31 USING FORMAT: "           (220I10) "
                     ------------------------------------------------------------------------------------------

                     CONCN. BOUNDARY ARRAY    FOR LAYER 26 READ ON UNIT 31 USING FORMAT: "           (220I10) "
                     ------------------------------------------------------------------------------------------

                     CONCN. BOUNDARY ARRAY    FOR LAYER 27 READ ON UNIT 31 USING FORMAT: "           (220I10) "
                     ------------------------------------------------------------------------------------------

                     CONCN. BOUNDARY ARRAY    FOR LAYER 28 READ ON UNIT 31 USING FORMAT: "           (220I10) "
                     ------------------------------------------------------------------------------------------

                     CONCN. BOUNDARY ARRAY    FOR LAYER 29 READ ON UNIT 31 USING FORMAT: "           (220I10) "
                     ------------------------------------------------------------------------------------------

                     CONCN. BOUNDARY ARRAY    FOR LAYER 30 READ ON UNIT 31 USING FORMAT: "           (220I10) "
                     ------------------------------------------------------------------------------------------

                     CONCN. BOUNDARY ARRAY    FOR LAYER 31 READ ON UNIT 31 USING FORMAT: "           (220I10) "
                     ------------------------------------------------------------------------------------------

                     CONCN. BOUNDARY ARRAY    FOR LAYER 32 READ ON UNIT 31 USING FORMAT: "           (220I10) "
                     ------------------------------------------------------------------------------------------

                     CONCN. BOUNDARY ARRAY    FOR LAYER 33 READ ON UNIT 31 USING FORMAT: "           (220I10) "
                     ------------------------------------------------------------------------------------------

                     CONCN. BOUNDARY ARRAY    FOR LAYER 34 READ ON UNIT 31 USING FORMAT: "           (220I10) "
                     ------------------------------------------------------------------------------------------

                     CONCN. BOUNDARY ARRAY    FOR LAYER 35 READ ON UNIT 31 USING FORMAT: "           (220I10) "
                     ------------------------------------------------------------------------------------------

                     CONCN. BOUNDARY ARRAY    FOR LAYER 36 READ ON UNIT 31 USING FORMAT: "           (220I10) "
                     ------------------------------------------------------------------------------------------

                     CONCN. BOUNDARY ARRAY    FOR LAYER 37 READ ON UNIT 31 USING FORMAT: "           (220I10) "
                     ------------------------------------------------------------------------------------------

                     CONCN. BOUNDARY ARRAY    FOR LAYER 38 READ ON UNIT 31 USING FORMAT: "           (220I10) "
                     ------------------------------------------------------------------------------------------

                     CONCN. BOUNDARY ARRAY    FOR LAYER 39 READ ON UNIT 31 USING FORMAT: "           (220I10) "
                     ------------------------------------------------------------------------------------------

                     CONCN. BOUNDARY ARRAY    FOR LAYER 40 READ ON UNIT 31 USING FORMAT: "           (220I10) "
                     ------------------------------------------------------------------------------------------

                     CONCN. BOUNDARY ARRAY    FOR LAYER 41 READ ON UNIT 31 USING FORMAT: "           (220I10) "
                     ------------------------------------------------------------------------------------------

                     CONCN. BOUNDARY ARRAY    FOR LAYER 42 READ ON UNIT 31 USING FORMAT: "           (220I10) "
                     ------------------------------------------------------------------------------------------

                     CONCN. BOUNDARY ARRAY    FOR LAYER 43 READ ON UNIT 31 USING FORMAT: "           (220I10) "
                     ------------------------------------------------------------------------------------------

                     CONCN. BOUNDARY ARRAY    FOR LAYER 44 READ ON UNIT 31 USING FORMAT: "           (220I10) "
                     ------------------------------------------------------------------------------------------

                     CONCN. BOUNDARY ARRAY    FOR LAYER 45 READ ON UNIT 31 USING FORMAT: "           (220I10) "
                     ------------------------------------------------------------------------------------------

                     CONCN. BOUNDARY ARRAY    FOR LAYER 46 READ ON UNIT 31 USING FORMAT: "           (220I10) "
                     ------------------------------------------------------------------------------------------

                     CONCN. BOUNDARY ARRAY    FOR LAYER 47 READ ON UNIT 31 USING FORMAT: "           (220I10) "
                     ------------------------------------------------------------------------------------------

                     CONCN. BOUNDARY ARRAY    FOR LAYER 48 READ ON UNIT 31 USING FORMAT: "           (220I10) "
                     ------------------------------------------------------------------------------------------

                     CONCN. BOUNDARY ARRAY    FOR LAYER 49 READ ON UNIT 31 USING FORMAT: "           (220I10) "
                     ------------------------------------------------------------------------------------------

                     CONCN. BOUNDARY ARRAY    FOR LAYER 50 READ ON UNIT 31 USING FORMAT: "           (220I10) "
                     ------------------------------------------------------------------------------------------
                                       INITIAL CONC.: COMP.  01 =   0.000000     FOR LAYER  1
                                       INITIAL CONC.: COMP.  01 =   0.000000     FOR LAYER  2
                                       INITIAL CONC.: COMP.  01 =   0.000000     FOR LAYER  3
                                       INITIAL CONC.: COMP.  01 =   0.000000     FOR LAYER  4
                                       INITIAL CONC.: COMP.  01 =   0.000000     FOR LAYER  5
                                       INITIAL CONC.: COMP.  01 =   0.000000     FOR LAYER  6
                                       INITIAL CONC.: COMP.  01 =   0.000000     FOR LAYER  7
                                       INITIAL CONC.: COMP.  01 =   0.000000     FOR LAYER  8
                                       INITIAL CONC.: COMP.  01 =   0.000000     FOR LAYER  9
                                       INITIAL CONC.: COMP.  01 =   0.000000     FOR LAYER 10
                                       INITIAL CONC.: COMP.  01 =   0.000000     FOR LAYER 11
                                       INITIAL CONC.: COMP.  01 =   0.000000     FOR LAYER 12
                                       INITIAL CONC.: COMP.  01 =   0.000000     FOR LAYER 13
                                       INITIAL CONC.: COMP.  01 =   0.000000     FOR LAYER 14
                                       INITIAL CONC.: COMP.  01 =   0.000000     FOR LAYER 15
                                       INITIAL CONC.: COMP.  01 =   0.000000     FOR LAYER 16
                                       INITIAL CONC.: COMP.  01 =   0.000000     FOR LAYER 17
                                       INITIAL CONC.: COMP.  01 =   0.000000     FOR LAYER 18
                                       INITIAL CONC.: COMP.  01 =   0.000000     FOR LAYER 19
                                       INITIAL CONC.: COMP.  01 =   0.000000     FOR LAYER 20
                                       INITIAL CONC.: COMP.  01 =   0.000000     FOR LAYER 21
                                       INITIAL CONC.: COMP.  01 =   0.000000     FOR LAYER 22
                                       INITIAL CONC.: COMP.  01 =   0.000000     FOR LAYER 23
                                       INITIAL CONC.: COMP.  01 =   0.000000     FOR LAYER 24
                                       INITIAL CONC.: COMP.  01 =   0.000000     FOR LAYER 25
                                       INITIAL CONC.: COMP.  01 =   0.000000     FOR LAYER 26
                                       INITIAL CONC.: COMP.  01 =   0.000000     FOR LAYER 27
                                       INITIAL CONC.: COMP.  01 =   0.000000     FOR LAYER 28
                                       INITIAL CONC.: COMP.  01 =   0.000000     FOR LAYER 29
                                       INITIAL CONC.: COMP.  01 =   0.000000     FOR LAYER 30
                                       INITIAL CONC.: COMP.  01 =   0.000000     FOR LAYER 31
                                       INITIAL CONC.: COMP.  01 =   0.000000     FOR LAYER 32
                                       INITIAL CONC.: COMP.  01 =   0.000000     FOR LAYER 33
                                       INITIAL CONC.: COMP.  01 =   0.000000     FOR LAYER 34
                                       INITIAL CONC.: COMP.  01 =   0.000000     FOR LAYER 35
                                       INITIAL CONC.: COMP.  01 =   0.000000     FOR LAYER 36
                                       INITIAL CONC.: COMP.  01 =   0.000000     FOR LAYER 37
                                       INITIAL CONC.: COMP.  01 =   0.000000     FOR LAYER 38
                                       INITIAL CONC.: COMP.  01 =   0.000000     FOR LAYER 39
                                       INITIAL CONC.: COMP.  01 =   0.000000     FOR LAYER 40
                                       INITIAL CONC.: COMP.  01 =   0.000000     FOR LAYER 41
                                       INITIAL CONC.: COMP.  01 =   0.000000     FOR LAYER 42
                                       INITIAL CONC.: COMP.  01 =   0.000000     FOR LAYER 43
                                       INITIAL CONC.: COMP.  01 =   0.000000     FOR LAYER 44
                                       INITIAL CONC.: COMP.  01 =   0.000000     FOR LAYER 45
                                       INITIAL CONC.: COMP.  01 =   0.000000     FOR LAYER 46
                                       INITIAL CONC.: COMP.  01 =   0.000000     FOR LAYER 47
                                       INITIAL CONC.: COMP.  01 =   0.000000     FOR LAYER 48
                                       INITIAL CONC.: COMP.  01 =   0.000000     FOR LAYER 49
                                       INITIAL CONC.: COMP.  01 =   0.000000     FOR LAYER 50

 VALUE INDICATING INACTIVE CONCENTRATION CELLS =   0.1000000E+31
 MINIMUM SATURATED THICKNESS [THKMIN] ALLOWED =  0.0100 OF TOTAL CELL THICKNESS


 OUTPUT CONTROL OPTIONS
 ----------------------

 DO NOT PRINT CELL CONCENTRATION
 DO NOT PRINT PARTICLE NUMBER IN EACH CELL
 DO NOT PRINT RETARDATION FACTOR
 DO NOT PRINT DISPERSION COEFFICIENT
 SAVE DISSOLVED PHASE CONCENTRATIONS IN UNFORMATTED FILES [MT3Dnnn.UCN]
  FOR EACH SPECIES ON UNITS 201 AND ABOVE
 SAVE SORBED/IMMOBILE PHASE CONCENTRATIONS IN UNFORMATTED FILES [MT3DnnnS.UCN]
  FOR EACH SPECIES ON UNITS 301 AND ABOVE, IF SORPTION/MASS TRANSFER SIMULATED

 NUMBER OF TIMES AT WHICH SIMULATION RESULTS ARE SAVED =    7
 TOTAL ELAPSED TIMES AT WHICH SIMULATION RESULTS ARE SAVED: 
    200.00       400.00       600.00       800.00       1000.0       1200.0       1400.0    

 NUMBER OF OBSERVATION POINTS =    0

 DO NOT SAVE ONE-LINE SUMMARY OF MASS BUDGETS

 MAXIMUM LENGTH ALONG THE X (J) AXIS =   2640.000    
 MAXIMUM LENGTH ALONG THE Y (I) AXIS =   2280.000    
 MAXIMUM LENGTH ALONG THE Z (K) AXIS =   25.00000    


 ADVECTION SOLUTION OPTIONS
 --------------------------

 ADVECTION IS SOLVED WITH THE UPSTREAM FINITE DIFFERENCE SCHEME
 COURANT NUMBER ALLOWED IN SOLVING THE ADVECTION TERM = 0.400    


 DISPERSION INPUT PARAMETERS
 ---------------------------

                                       LONG. DISPERSIVITY (AL)  =  0.2000000     FOR LAYER  1
                                       LONG. DISPERSIVITY (AL)  =  0.2000000     FOR LAYER  2
                                       LONG. DISPERSIVITY (AL)  =  0.2000000     FOR LAYER  3
                                       LONG. DISPERSIVITY (AL)  =  0.2000000     FOR LAYER  4
                                       LONG. DISPERSIVITY (AL)  =  0.2000000     FOR LAYER  5
                                       LONG. DISPERSIVITY (AL)  =  0.2000000     FOR LAYER  6
                                       LONG. DISPERSIVITY (AL)  =  0.2000000     FOR LAYER  7
                                       LONG. DISPERSIVITY (AL)  =  0.2000000     FOR LAYER  8
                                       LONG. DISPERSIVITY (AL)  =  0.2000000     FOR LAYER  9
                                       LONG. DISPERSIVITY (AL)  =  0.2000000     FOR LAYER 10
                                       LONG. DISPERSIVITY (AL)  =  0.2000000     FOR LAYER 11
                                       LONG. DISPERSIVITY (AL)  =  0.2000000     FOR LAYER 12
                                       LONG. DISPERSIVITY (AL)  =  0.2000000     FOR LAYER 13
                                       LONG. DISPERSIVITY (AL)  =  0.2000000     FOR LAYER 14
                                       LONG. DISPERSIVITY (AL)  =  0.2000000     FOR LAYER 15
                                       LONG. DISPERSIVITY (AL)  =  0.2000000     FOR LAYER 16
                                       LONG. DISPERSIVITY (AL)  =  0.2000000     FOR LAYER 17
                                       LONG. DISPERSIVITY (AL)  =  0.2000000     FOR LAYER 18
                                       LONG. DISPERSIVITY (AL)  =  0.2000000     FOR LAYER 19
                                       LONG. DISPERSIVITY (AL)  =  0.2000000     FOR LAYER 20
                                       LONG. DISPERSIVITY (AL)  =  0.2000000     FOR LAYER 21
                                       LONG. DISPERSIVITY (AL)  =  0.2000000     FOR LAYER 22
                                       LONG. DISPERSIVITY (AL)  =  0.2000000     FOR LAYER 23
                                       LONG. DISPERSIVITY (AL)  =  0.2000000     FOR LAYER 24
                                       LONG. DISPERSIVITY (AL)  =  0.2000000     FOR LAYER 25
                                       LONG. DISPERSIVITY (AL)  =  0.2000000     FOR LAYER 26
                                       LONG. DISPERSIVITY (AL)  =  0.2000000     FOR LAYER 27
                                       LONG. DISPERSIVITY (AL)  =  0.2000000     FOR LAYER 28
                                       LONG. DISPERSIVITY (AL)  =  0.2000000     FOR LAYER 29
                                       LONG. DISPERSIVITY (AL)  =  0.2000000     FOR LAYER 30
                                       LONG. DISPERSIVITY (AL)  =  0.2000000     FOR LAYER 31
                                       LONG. DISPERSIVITY (AL)  =  0.2000000     FOR LAYER 32
                                       LONG. DISPERSIVITY (AL)  =  0.2000000     FOR LAYER 33
                                       LONG. DISPERSIVITY (AL)  =  0.2000000     FOR LAYER 34
                                       LONG. DISPERSIVITY (AL)  =  0.2000000     FOR LAYER 35
                                       LONG. DISPERSIVITY (AL)  =  0.2000000     FOR LAYER 36
                                       LONG. DISPERSIVITY (AL)  =  0.2000000     FOR LAYER 37
                                       LONG. DISPERSIVITY (AL)  =  0.2000000     FOR LAYER 38
                                       LONG. DISPERSIVITY (AL)  =  0.2000000     FOR LAYER 39
                                       LONG. DISPERSIVITY (AL)  =  0.2000000     FOR LAYER 40
                                       LONG. DISPERSIVITY (AL)  =  0.2000000     FOR LAYER 41
                                       LONG. DISPERSIVITY (AL)  =  0.2000000     FOR LAYER 42
                                       LONG. DISPERSIVITY (AL)  =  0.2000000     FOR LAYER 43
                                       LONG. DISPERSIVITY (AL)  =  0.2000000     FOR LAYER 44
                                       LONG. DISPERSIVITY (AL)  =  0.2000000     FOR LAYER 45
                                       LONG. DISPERSIVITY (AL)  =  0.2000000     FOR LAYER 46
                                       LONG. DISPERSIVITY (AL)  =  0.2000000     FOR LAYER 47
                                       LONG. DISPERSIVITY (AL)  =  0.2000000     FOR LAYER 48
                                       LONG. DISPERSIVITY (AL)  =  0.2000000     FOR LAYER 49
                                       LONG. DISPERSIVITY (AL)  =  0.2000000     FOR LAYER 50
                                       H. TRANS./LONG. DISP.    =  0.1000000    
                                       V. TRANS./LONG. DISP.    =  0.1000000    
                                       DIFFUSION COEFFICIENT    =  0.3700000E-09


 SORPTION AND 1ST/0TH ORDER REACTION PARAMETERS
 ----------------------------------------------

                                       BULK DENSITY (RHOB)      =  0.1650000E+10 FOR LAYER  1
                                       BULK DENSITY (RHOB)      =  0.1650000E+10 FOR LAYER  2
                                       BULK DENSITY (RHOB)      =  0.1650000E+10 FOR LAYER  3
                                       BULK DENSITY (RHOB)      =  0.1650000E+10 FOR LAYER  4
                                       BULK DENSITY (RHOB)      =  0.1650000E+10 FOR LAYER  5
                                       BULK DENSITY (RHOB)      =  0.1650000E+10 FOR LAYER  6
                                       BULK DENSITY (RHOB)      =  0.1650000E+10 FOR LAYER  7
                                       BULK DENSITY (RHOB)      =  0.1650000E+10 FOR LAYER  8
                                       BULK DENSITY (RHOB)      =  0.1650000E+10 FOR LAYER  9
                                       BULK DENSITY (RHOB)      =  0.1650000E+10 FOR LAYER 10
                                       BULK DENSITY (RHOB)      =  0.1650000E+10 FOR LAYER 11
                                       BULK DENSITY (RHOB)      =  0.1650000E+10 FOR LAYER 12
                                       BULK DENSITY (RHOB)      =  0.1650000E+10 FOR LAYER 13
                                       BULK DENSITY (RHOB)      =  0.1650000E+10 FOR LAYER 14
                                       BULK DENSITY (RHOB)      =  0.1650000E+10 FOR LAYER 15
                                       BULK DENSITY (RHOB)      =  0.1650000E+10 FOR LAYER 16
                                       BULK DENSITY (RHOB)      =  0.1650000E+10 FOR LAYER 17
                                       BULK DENSITY (RHOB)      =  0.1650000E+10 FOR LAYER 18
                                       BULK DENSITY (RHOB)      =  0.1650000E+10 FOR LAYER 19
                                       BULK DENSITY (RHOB)      =  0.1650000E+10 FOR LAYER 20
                                       BULK DENSITY (RHOB)      =  0.1650000E+10 FOR LAYER 21
                                       BULK DENSITY (RHOB)      =  0.1650000E+10 FOR LAYER 22
                                       BULK DENSITY (RHOB)      =  0.1650000E+10 FOR LAYER 23
                                       BULK DENSITY (RHOB)      =  0.1650000E+10 FOR LAYER 24
                                       BULK DENSITY (RHOB)      =  0.1650000E+10 FOR LAYER 25
                                       BULK DENSITY (RHOB)      =  0.1650000E+10 FOR LAYER 26
                                       BULK DENSITY (RHOB)      =  0.1650000E+10 FOR LAYER 27
                                       BULK DENSITY (RHOB)      =  0.1650000E+10 FOR LAYER 28
                                       BULK DENSITY (RHOB)      =  0.1650000E+10 FOR LAYER 29
                                       BULK DENSITY (RHOB)      =  0.1650000E+10 FOR LAYER 30
                                       BULK DENSITY (RHOB)      =  0.1650000E+10 FOR LAYER 31
                                       BULK DENSITY (RHOB)      =  0.1650000E+10 FOR LAYER 32
                                       BULK DENSITY (RHOB)      =  0.1650000E+10 FOR LAYER 33
                                       BULK DENSITY (RHOB)      =  0.1650000E+10 FOR LAYER 34
                                       BULK DENSITY (RHOB)      =  0.1650000E+10 FOR LAYER 35
                                       BULK DENSITY (RHOB)      =  0.1650000E+10 FOR LAYER 36
                                       BULK DENSITY (RHOB)      =  0.1650000E+10 FOR LAYER 37
                                       BULK DENSITY (RHOB)      =  0.1650000E+10 FOR LAYER 38
                                       BULK DENSITY (RHOB)      =  0.1650000E+10 FOR LAYER 39
                                       BULK DENSITY (RHOB)      =  0.1650000E+10 FOR LAYER 40
                                       BULK DENSITY (RHOB)      =  0.1650000E+10 FOR LAYER 41
                                       BULK DENSITY (RHOB)      =  0.1650000E+10 FOR LAYER 42
                                       BULK DENSITY (RHOB)      =  0.1650000E+10 FOR LAYER 43
                                       BULK DENSITY (RHOB)      =  0.1650000E+10 FOR LAYER 44
                                       BULK DENSITY (RHOB)      =  0.1650000E+10 FOR LAYER 45
                                       BULK DENSITY (RHOB)      =  0.1650000E+10 FOR LAYER 46
                                       BULK DENSITY (RHOB)      =  0.1650000E+10 FOR LAYER 47
                                       BULK DENSITY (RHOB)      =  0.1650000E+10 FOR LAYER 48
                                       BULK DENSITY (RHOB)      =  0.1650000E+10 FOR LAYER 49
                                       BULK DENSITY (RHOB)      =  0.1650000E+10 FOR LAYER 50
                                       1ST SORP. COEF. COMP. 01 =  0.1000000E-03 FOR LAYER  1
                                       1ST SORP. COEF. COMP. 01 =  0.1000000E-03 FOR LAYER  2
                                       1ST SORP. COEF. COMP. 01 =  0.1000000E-03 FOR LAYER  3
                                       1ST SORP. COEF. COMP. 01 =  0.1000000E-03 FOR LAYER  4
                                       1ST SORP. COEF. COMP. 01 =  0.1000000E-03 FOR LAYER  5
                                       1ST SORP. COEF. COMP. 01 =  0.1000000E-03 FOR LAYER  6
                                       1ST SORP. COEF. COMP. 01 =  0.1000000E-03 FOR LAYER  7
                                       1ST SORP. COEF. COMP. 01 =  0.1000000E-03 FOR LAYER  8
                                       1ST SORP. COEF. COMP. 01 =  0.1000000E-03 FOR LAYER  9
                                       1ST SORP. COEF. COMP. 01 =  0.1000000E-03 FOR LAYER 10
                                       1ST SORP. COEF. COMP. 01 =  0.1000000E-03 FOR LAYER 11
                                       1ST SORP. COEF. COMP. 01 =  0.1000000E-03 FOR LAYER 12
                                       1ST SORP. COEF. COMP. 01 =  0.1000000E-03 FOR LAYER 13
                                       1ST SORP. COEF. COMP. 01 =  0.1000000E-03 FOR LAYER 14
                                       1ST SORP. COEF. COMP. 01 =  0.1000000E-03 FOR LAYER 15
                                       1ST SORP. COEF. COMP. 01 =  0.1000000E-03 FOR LAYER 16
                                       1ST SORP. COEF. COMP. 01 =  0.1000000E-03 FOR LAYER 17
                                       1ST SORP. COEF. COMP. 01 =  0.1000000E-03 FOR LAYER 18
                                       1ST SORP. COEF. COMP. 01 =  0.1000000E-03 FOR LAYER 19
                                       1ST SORP. COEF. COMP. 01 =  0.1000000E-03 FOR LAYER 20
                                       1ST SORP. COEF. COMP. 01 =  0.1000000E-03 FOR LAYER 21
                                       1ST SORP. COEF. COMP. 01 =  0.1000000E-03 FOR LAYER 22
                                       1ST SORP. COEF. COMP. 01 =  0.1000000E-03 FOR LAYER 23
                                       1ST SORP. COEF. COMP. 01 =  0.1000000E-03 FOR LAYER 24
                                       1ST SORP. COEF. COMP. 01 =  0.1000000E-03 FOR LAYER 25
                                       1ST SORP. COEF. COMP. 01 =  0.1000000E-03 FOR LAYER 26
                                       1ST SORP. COEF. COMP. 01 =  0.1000000E-03 FOR LAYER 27
                                       1ST SORP. COEF. COMP. 01 =  0.1000000E-03 FOR LAYER 28
                                       1ST SORP. COEF. COMP. 01 =  0.1000000E-03 FOR LAYER 29
                                       1ST SORP. COEF. COMP. 01 =  0.1000000E-03 FOR LAYER 30
                                       1ST SORP. COEF. COMP. 01 =  0.1000000E-03 FOR LAYER 31
                                       1ST SORP. COEF. COMP. 01 =  0.1000000E-03 FOR LAYER 32
                                       1ST SORP. COEF. COMP. 01 =  0.1000000E-03 FOR LAYER 33
                                       1ST SORP. COEF. COMP. 01 =  0.1000000E-03 FOR LAYER 34
                                       1ST SORP. COEF. COMP. 01 =  0.1000000E-03 FOR LAYER 35
                                       1ST SORP. COEF. COMP. 01 =  0.1000000E-03 FOR LAYER 36
                                       1ST SORP. COEF. COMP. 01 =  0.1000000E-03 FOR LAYER 37
                                       1ST SORP. COEF. COMP. 01 =  0.1000000E-03 FOR LAYER 38
                                       1ST SORP. COEF. COMP. 01 =  0.1000000E-03 FOR LAYER 39
                                       1ST SORP. COEF. COMP. 01 =  0.1000000E-03 FOR LAYER 40
                                       1ST SORP. COEF. COMP. 01 =  0.1000000E-03 FOR LAYER 41
                                       1ST SORP. COEF. COMP. 01 =  0.1000000E-03 FOR LAYER 42
                                       1ST SORP. COEF. COMP. 01 =  0.1000000E-03 FOR LAYER 43
                                       1ST SORP. COEF. COMP. 01 =  0.1000000E-03 FOR LAYER 44
                                       1ST SORP. COEF. COMP. 01 =  0.1000000E-03 FOR LAYER 45
                                       1ST SORP. COEF. COMP. 01 =  0.1000000E-03 FOR LAYER 46
                                       1ST SORP. COEF. COMP. 01 =  0.1000000E-03 FOR LAYER 47
                                       1ST SORP. COEF. COMP. 01 =  0.1000000E-03 FOR LAYER 48
                                       1ST SORP. COEF. COMP. 01 =  0.1000000E-03 FOR LAYER 49
                                       1ST SORP. COEF. COMP. 01 =  0.1000000E-03 FOR LAYER 50
                                       2ND SORP. COEF. COMP. 01 =  0.1000000E-03 FOR LAYER  1
                                       2ND SORP. COEF. COMP. 01 =  0.1000000E-03 FOR LAYER  2
                                       2ND SORP. COEF. COMP. 01 =  0.1000000E-03 FOR LAYER  3
                                       2ND SORP. COEF. COMP. 01 =  0.1000000E-03 FOR LAYER  4
                                       2ND SORP. COEF. COMP. 01 =  0.1000000E-03 FOR LAYER  5
                                       2ND SORP. COEF. COMP. 01 =  0.1000000E-03 FOR LAYER  6
                                       2ND SORP. COEF. COMP. 01 =  0.1000000E-03 FOR LAYER  7
                                       2ND SORP. COEF. COMP. 01 =  0.1000000E-03 FOR LAYER  8
                                       2ND SORP. COEF. COMP. 01 =  0.1000000E-03 FOR LAYER  9
                                       2ND SORP. COEF. COMP. 01 =  0.1000000E-03 FOR LAYER 10
                                       2ND SORP. COEF. COMP. 01 =  0.1000000E-03 FOR LAYER 11
                                       2ND SORP. COEF. COMP. 01 =  0.1000000E-03 FOR LAYER 12
                                       2ND SORP. COEF. COMP. 01 =  0.1000000E-03 FOR LAYER 13
                                       2ND SORP. COEF. COMP. 01 =  0.1000000E-03 FOR LAYER 14
                                       2ND SORP. COEF. COMP. 01 =  0.1000000E-03 FOR LAYER 15
                                       2ND SORP. COEF. COMP. 01 =  0.1000000E-03 FOR LAYER 16
                                       2ND SORP. COEF. COMP. 01 =  0.1000000E-03 FOR LAYER 17
                                       2ND SORP. COEF. COMP. 01 =  0.1000000E-03 FOR LAYER 18
                                       2ND SORP. COEF. COMP. 01 =  0.1000000E-03 FOR LAYER 19
                                       2ND SORP. COEF. COMP. 01 =  0.1000000E-03 FOR LAYER 20
                                       2ND SORP. COEF. COMP. 01 =  0.1000000E-03 FOR LAYER 21
                                       2ND SORP. COEF. COMP. 01 =  0.1000000E-03 FOR LAYER 22
                                       2ND SORP. COEF. COMP. 01 =  0.1000000E-03 FOR LAYER 23
                                       2ND SORP. COEF. COMP. 01 =  0.1000000E-03 FOR LAYER 24
                                       2ND SORP. COEF. COMP. 01 =  0.1000000E-03 FOR LAYER 25
                                       2ND SORP. COEF. COMP. 01 =  0.1000000E-03 FOR LAYER 26
                                       2ND SORP. COEF. COMP. 01 =  0.1000000E-03 FOR LAYER 27
                                       2ND SORP. COEF. COMP. 01 =  0.1000000E-03 FOR LAYER 28
                                       2ND SORP. COEF. COMP. 01 =  0.1000000E-03 FOR LAYER 29
                                       2ND SORP. COEF. COMP. 01 =  0.1000000E-03 FOR LAYER 30
                                       2ND SORP. COEF. COMP. 01 =  0.1000000E-03 FOR LAYER 31
                                       2ND SORP. COEF. COMP. 01 =  0.1000000E-03 FOR LAYER 32
                                       2ND SORP. COEF. COMP. 01 =  0.1000000E-03 FOR LAYER 33
                                       2ND SORP. COEF. COMP. 01 =  0.1000000E-03 FOR LAYER 34
                                       2ND SORP. COEF. COMP. 01 =  0.1000000E-03 FOR LAYER 35
                                       2ND SORP. COEF. COMP. 01 =  0.1000000E-03 FOR LAYER 36
                                       2ND SORP. COEF. COMP. 01 =  0.1000000E-03 FOR LAYER 37
                                       2ND SORP. COEF. COMP. 01 =  0.1000000E-03 FOR LAYER 38
                                       2ND SORP. COEF. COMP. 01 =  0.1000000E-03 FOR LAYER 39
                                       2ND SORP. COEF. COMP. 01 =  0.1000000E-03 FOR LAYER 40
                                       2ND SORP. COEF. COMP. 01 =  0.1000000E-03 FOR LAYER 41
                                       2ND SORP. COEF. COMP. 01 =  0.1000000E-03 FOR LAYER 42
                                       2ND SORP. COEF. COMP. 01 =  0.1000000E-03 FOR LAYER 43
                                       2ND SORP. COEF. COMP. 01 =  0.1000000E-03 FOR LAYER 44
                                       2ND SORP. COEF. COMP. 01 =  0.1000000E-03 FOR LAYER 45
                                       2ND SORP. COEF. COMP. 01 =  0.1000000E-03 FOR LAYER 46
                                       2ND SORP. COEF. COMP. 01 =  0.1000000E-03 FOR LAYER 47
                                       2ND SORP. COEF. COMP. 01 =  0.1000000E-03 FOR LAYER 48
                                       2ND SORP. COEF. COMP. 01 =  0.1000000E-03 FOR LAYER 49
                                       2ND SORP. COEF. COMP. 01 =  0.1000000E-03 FOR LAYER 50



                                               SOLUTION BY THE GENERALIZED CONJUGATE GRADIENT METHOD
                                               -----------------------------------------------------
                                     MAXIMUM OUTER ITERATIONS ALLOWED FOR CLOSURE =        1
                                     MAXIMUM INNER ITERATIONS ALLOWED FOR CLOSURE =       50
                                                    PRECONDITIONING TYPE SELECTED =    2
                                                           ACCELERATION PARAMETER =     1.0000    
                                       CONCENTRATION CHANGE CRITERION FOR CLOSURE =    0.10000E-04
                                       GCG CONCENTRATION CHANGE PRINTOUT INTERVAL =      999


                                   ++++++++++++++++++++++++++++++++++++++++++++++++++++++++++++++
                                                       STRESS PERIOD NO.  001
                                   ++++++++++++++++++++++++++++++++++++++++++++++++++++++++++++++


 LENGTH OF CURRENT STRESS PERIOD =   200.0000    
 NUMBER OF TIME STEPS FOR CURRENT STRESS PERIOD =    1
 TIME STEP MULTIPLIER USED IN FLOW SOLUTION =   1.000000    
 USER-SPECIFIED TRANSPORT STEPSIZE =   0.000000    D   
 MAXIMUM NUMBER OF TRANSPORT STEPS ALLOWED  IN ONE FLOW TIME STEP =     50000
 MULTIPLIER FOR SUCCESSIVE TRANSPORT STEPS  [USED IN IMPLICIT SCHEMES] =     1.100
 MAXIMUM TRANSPORT STEP SIZE  [USED IN IMPLICIT SCHEMES] =   0.000000    D   
1
                            STRESS PERIOD NO.    1, LENGTH =   200.0000    
                            -----------------------------------------------

                              NUMBER OF TIME STEPS =     1

                               MULTIPLIER FOR DELT =     1.000

                            INITIAL TIME STEP SIZE =   200.0000    

 NO. OF POINT SINKS/SOURCES OF SPECIFIED CONCONCENTRATIONS =    0 IN STRESS PERIOD  1

      0 WELLS


                                          ================================================
                                                         FROM TIME =   0.0000     TO    200.00    

