                                  MODFLOW-2005     
      U.S. GEOLOGICAL SURVEY MODULAR FINITE-DIFFERENCE GROUND-WATER FLOW MODEL
                            VERSION 1.12.00 2/3/2017

 LIST FILE: example_model.list
                         UNIT    2

 OPENING example_model.dis
 FILE TYPE:DIS   UNIT   11   STATUS:OLD    
 FORMAT:FORMATTED              ACCESS:SEQUENTIAL          

 OPENING example_model.bas
 FILE TYPE:BAS6   UNIT   13   STATUS:OLD    
 FORMAT:FORMATTED              ACCESS:SEQUENTIAL          

 OPENING example_model.lpf
 FILE TYPE:LPF   UNIT   15   STATUS:OLD    
 FORMAT:FORMATTED              ACCESS:SEQUENTIAL          

 OPENING example_model.pcg
 FILE TYPE:PCG   UNIT   27   STATUS:OLD    
 FORMAT:FORMATTED              ACCESS:SEQUENTIAL          

 OPENING example_model.oc
 FILE TYPE:OC   UNIT   14   STATUS:OLD    
 FORMAT:FORMATTED              ACCESS:SEQUENTIAL          

 OPENING example_model.cbc
 FILE TYPE:DATA(BINARY)   UNIT   53   STATUS:REPLACE
 FORMAT:UNFORMATTED            ACCESS:STREAM              

 OPENING example_model.hds
 FILE TYPE:DATA(BINARY)   UNIT   51   STATUS:REPLACE
 FORMAT:UNFORMATTED            ACCESS:STREAM              

 BAS -- BASIC PACKAGE, VERSION 7, 5/2/2005 INPUT READ FROM UNIT   13
 
 MODFLOW was compiled using mixed precision
 Precision of REAL variables:           6
 Precision of DOUBLE PRECISION variables:          15

 DISCRETIZATION INPUT DATA READ FROM UNIT   11
 # DIS package for MODFLOW-2005 generated by Flopy 3.3.6
   50 LAYERS       190 ROWS       220 COLUMNS
    1 STRESS PERIOD(S) IN SIMULATION
 MODEL TIME UNIT IS DAYS
 MODEL LENGTH UNIT IS METERS
  Confining bed flag for each layer:
   0   0   0   0   0   0   0   0   0   0   0   0   0   0   0   0   0   0   0   0
   0   0   0   0   0   0   0   0   0   0   0   0   0   0   0   0   0   0   0   0
   0   0   0   0   0   0   0   0   0   0

                     DELR =   10.0000    

                     DELC =   10.0000    

 TOP ELEVATION OF LAYER 1 =   190.000    

   MODEL LAYER BOTTOM EL. =   189.500     FOR LAYER   1

   MODEL LAYER BOTTOM EL. =   189.000     FOR LAYER   2

   MODEL LAYER BOTTOM EL. =   188.500     FOR LAYER   3

   MODEL LAYER BOTTOM EL. =   188.000     FOR LAYER   4

   MODEL LAYER BOTTOM EL. =   187.500     FOR LAYER   5

   MODEL LAYER BOTTOM EL. =   187.000     FOR LAYER   6

   MODEL LAYER BOTTOM EL. =   186.500     FOR LAYER   7

   MODEL LAYER BOTTOM EL. =   186.000     FOR LAYER   8

   MODEL LAYER BOTTOM EL. =   185.500     FOR LAYER   9

   MODEL LAYER BOTTOM EL. =   185.000     FOR LAYER  10

   MODEL LAYER BOTTOM EL. =   184.500     FOR LAYER  11

   MODEL LAYER BOTTOM EL. =   184.000     FOR LAYER  12

   MODEL LAYER BOTTOM EL. =   183.500     FOR LAYER  13

   MODEL LAYER BOTTOM EL. =   183.000     FOR LAYER  14

   MODEL LAYER BOTTOM EL. =   182.500     FOR LAYER  15

   MODEL LAYER BOTTOM EL. =   182.000     FOR LAYER  16

   MODEL LAYER BOTTOM EL. =   181.500     FOR LAYER  17

   MODEL LAYER BOTTOM EL. =   181.000     FOR LAYER  18

   MODEL LAYER BOTTOM EL. =   180.500     FOR LAYER  19

   MODEL LAYER BOTTOM EL. =   180.000     FOR LAYER  20

   MODEL LAYER BOTTOM EL. =   179.500     FOR LAYER  21

   MODEL LAYER BOTTOM EL. =   179.000     FOR LAYER  22

   MODEL LAYER BOTTOM EL. =   178.500     FOR LAYER  23

   MODEL LAYER BOTTOM EL. =   178.000     FOR LAYER  24

   MODEL LAYER BOTTOM EL. =   177.500     FOR LAYER  25

   MODEL LAYER BOTTOM EL. =   177.000     FOR LAYER  26

   MODEL LAYER BOTTOM EL. =   176.500     FOR LAYER  27

   MODEL LAYER BOTTOM EL. =   176.000     FOR LAYER  28

   MODEL LAYER BOTTOM EL. =   175.500     FOR LAYER  29

   MODEL LAYER BOTTOM EL. =   175.000     FOR LAYER  30

   MODEL LAYER BOTTOM EL. =   174.500     FOR LAYER  31

   MODEL LAYER BOTTOM EL. =   174.000     FOR LAYER  32

   MODEL LAYER BOTTOM EL. =   173.500     FOR LAYER  33

   MODEL LAYER BOTTOM EL. =   173.000     FOR LAYER  34

   MODEL LAYER BOTTOM EL. =   172.500     FOR LAYER  35

   MODEL LAYER BOTTOM EL. =   172.000     FOR LAYER  36

   MODEL LAYER BOTTOM EL. =   171.500     FOR LAYER  37

   MODEL LAYER BOTTOM EL. =   171.000     FOR LAYER  38

   MODEL LAYER BOTTOM EL. =   170.500     FOR LAYER  39

   MODEL LAYER BOTTOM EL. =   170.000     FOR LAYER  40

   MODEL LAYER BOTTOM EL. =   169.500     FOR LAYER  41

   MODEL LAYER BOTTOM EL. =   169.000     FOR LAYER  42

   MODEL LAYER BOTTOM EL. =   168.500     FOR LAYER  43

   MODEL LAYER BOTTOM EL. =   168.000     FOR LAYER  44

   MODEL LAYER BOTTOM EL. =   167.500     FOR LAYER  45

   MODEL LAYER BOTTOM EL. =   167.000     FOR LAYER  46

   MODEL LAYER BOTTOM EL. =   166.500     FOR LAYER  47

   MODEL LAYER BOTTOM EL. =   166.000     FOR LAYER  48

   MODEL LAYER BOTTOM EL. =   165.500     FOR LAYER  49

   MODEL LAYER BOTTOM EL. =   165.000     FOR LAYER  50


 STRESS PERIOD     LENGTH       TIME STEPS     MULTIPLIER FOR DELT    SS FLAG
 ----------------------------------------------------------------------------
        1         1.000000          1                    1.000         SS

 STEADY-STATE SIMULATION



 
 # BAS6 package for MODFLOW-2005 generated by Flopy 3.3.6                        
 THE FREE FORMAT OPTION HAS BEEN SELECTED



                     BOUNDARY ARRAY FOR LAYER   1
 READING ON UNIT   13 WITH FORMAT: (220I10)            



                     BOUNDARY ARRAY FOR LAYER   2
 READING ON UNIT   13 WITH FORMAT: (220I10)            



                     BOUNDARY ARRAY FOR LAYER   3
 READING ON UNIT   13 WITH FORMAT: (220I10)            



                     BOUNDARY ARRAY FOR LAYER   4
 READING ON UNIT   13 WITH FORMAT: (220I10)            



                     BOUNDARY ARRAY FOR LAYER   5
 READING ON UNIT   13 WITH FORMAT: (220I10)            



                     BOUNDARY ARRAY FOR LAYER   6
 READING ON UNIT   13 WITH FORMAT: (220I10)            



                     BOUNDARY ARRAY FOR LAYER   7
 READING ON UNIT   13 WITH FORMAT: (220I10)            



                     BOUNDARY ARRAY FOR LAYER   8
 READING ON UNIT   13 WITH FORMAT: (220I10)            



                     BOUNDARY ARRAY FOR LAYER   9
 READING ON UNIT   13 WITH FORMAT: (220I10)            



                     BOUNDARY ARRAY FOR LAYER  10
 READING ON UNIT   13 WITH FORMAT: (220I10)            



                     BOUNDARY ARRAY FOR LAYER  11
 READING ON UNIT   13 WITH FORMAT: (220I10)            



                     BOUNDARY ARRAY FOR LAYER  12
 READING ON UNIT   13 WITH FORMAT: (220I10)            



                     BOUNDARY ARRAY FOR LAYER  13
 READING ON UNIT   13 WITH FORMAT: (220I10)            



                     BOUNDARY ARRAY FOR LAYER  14
 READING ON UNIT   13 WITH FORMAT: (220I10)            



                     BOUNDARY ARRAY FOR LAYER  15
 READING ON UNIT   13 WITH FORMAT: (220I10)            



                     BOUNDARY ARRAY FOR LAYER  16
 READING ON UNIT   13 WITH FORMAT: (220I10)            



                     BOUNDARY ARRAY FOR LAYER  17
 READING ON UNIT   13 WITH FORMAT: (220I10)            



                     BOUNDARY ARRAY FOR LAYER  18
 READING ON UNIT   13 WITH FORMAT: (220I10)            



                     BOUNDARY ARRAY FOR LAYER  19
 READING ON UNIT   13 WITH FORMAT: (220I10)            



                     BOUNDARY ARRAY FOR LAYER  20
 READING ON UNIT   13 WITH FORMAT: (220I10)            



                     BOUNDARY ARRAY FOR LAYER  21
 READING ON UNIT   13 WITH FORMAT: (220I10)            



                     BOUNDARY ARRAY FOR LAYER  22
 READING ON UNIT   13 WITH FORMAT: (220I10)            



                     BOUNDARY ARRAY FOR LAYER  23
 READING ON UNIT   13 WITH FORMAT: (220I10)            



                     BOUNDARY ARRAY FOR LAYER  24
 READING ON UNIT   13 WITH FORMAT: (220I10)            



                     BOUNDARY ARRAY FOR LAYER  25
 READING ON UNIT   13 WITH FORMAT: (220I10)            



                     BOUNDARY ARRAY FOR LAYER  26
 READING ON UNIT   13 WITH FORMAT: (220I10)            



                     BOUNDARY ARRAY FOR LAYER  27
 READING ON UNIT   13 WITH FORMAT: (220I10)            



                     BOUNDARY ARRAY FOR LAYER  28
 READING ON UNIT   13 WITH FORMAT: (220I10)            



                     BOUNDARY ARRAY FOR LAYER  29
 READING ON UNIT   13 WITH FORMAT: (220I10)            



                     BOUNDARY ARRAY FOR LAYER  30
 READING ON UNIT   13 WITH FORMAT: (220I10)            



                     BOUNDARY ARRAY FOR LAYER  31
 READING ON UNIT   13 WITH FORMAT: (220I10)            



                     BOUNDARY ARRAY FOR LAYER  32
 READING ON UNIT   13 WITH FORMAT: (220I10)            



                     BOUNDARY ARRAY FOR LAYER  33
 READING ON UNIT   13 WITH FORMAT: (220I10)            



                     BOUNDARY ARRAY FOR LAYER  34
 READING ON UNIT   13 WITH FORMAT: (220I10)            



                     BOUNDARY ARRAY FOR LAYER  35
 READING ON UNIT   13 WITH FORMAT: (220I10)            



                     BOUNDARY ARRAY FOR LAYER  36
 READING ON UNIT   13 WITH FORMAT: (220I10)            



                     BOUNDARY ARRAY FOR LAYER  37
 READING ON UNIT   13 WITH FORMAT: (220I10)            



                     BOUNDARY ARRAY FOR LAYER  38
 READING ON UNIT   13 WITH FORMAT: (220I10)            



                     BOUNDARY ARRAY FOR LAYER  39
 READING ON UNIT   13 WITH FORMAT: (220I10)            



                     BOUNDARY ARRAY FOR LAYER  40
 READING ON UNIT   13 WITH FORMAT: (220I10)            



                     BOUNDARY ARRAY FOR LAYER  41
 READING ON UNIT   13 WITH FORMAT: (220I10)            



                     BOUNDARY ARRAY FOR LAYER  42
 READING ON UNIT   13 WITH FORMAT: (220I10)            



                     BOUNDARY ARRAY FOR LAYER  43
 READING ON UNIT   13 WITH FORMAT: (220I10)            



                     BOUNDARY ARRAY FOR LAYER  44
 READING ON UNIT   13 WITH FORMAT: (220I10)            



                     BOUNDARY ARRAY FOR LAYER  45
 READING ON UNIT   13 WITH FORMAT: (220I10)            



                     BOUNDARY ARRAY FOR LAYER  46
 READING ON UNIT   13 WITH FORMAT: (220I10)            



                     BOUNDARY ARRAY FOR LAYER  47
 READING ON UNIT   13 WITH FORMAT: (220I10)            



                     BOUNDARY ARRAY FOR LAYER  48
 READING ON UNIT   13 WITH FORMAT: (220I10)            



                     BOUNDARY ARRAY FOR LAYER  49
 READING ON UNIT   13 WITH FORMAT: (220I10)            



                     BOUNDARY ARRAY FOR LAYER  50
 READING ON UNIT   13 WITH FORMAT: (220I10)            

 AQUIFER HEAD WILL BE SET TO  -999.99     AT ALL NO-FLOW NODES (IBOUND=0).



                       INITIAL HEAD FOR LAYER   1
 READING ON UNIT   13 WITH FORMAT: (220E15.6)          



                       INITIAL HEAD FOR LAYER   2
 READING ON UNIT   13 WITH FORMAT: (220E15.6)          



                       INITIAL HEAD FOR LAYER   3
 READING ON UNIT   13 WITH FORMAT: (220E15.6)          



                       INITIAL HEAD FOR LAYER   4
 READING ON UNIT   13 WITH FORMAT: (220E15.6)          



                       INITIAL HEAD FOR LAYER   5
 READING ON UNIT   13 WITH FORMAT: (220E15.6)          



                       INITIAL HEAD FOR LAYER   6
 READING ON UNIT   13 WITH FORMAT: (220E15.6)          



                       INITIAL HEAD FOR LAYER   7
 READING ON UNIT   13 WITH FORMAT: (220E15.6)          



                       INITIAL HEAD FOR LAYER   8
 READING ON UNIT   13 WITH FORMAT: (220E15.6)          



                       INITIAL HEAD FOR LAYER   9
 READING ON UNIT   13 WITH FORMAT: (220E15.6)          



                       INITIAL HEAD FOR LAYER  10
 READING ON UNIT   13 WITH FORMAT: (220E15.6)          



                       INITIAL HEAD FOR LAYER  11
 READING ON UNIT   13 WITH FORMAT: (220E15.6)          



                       INITIAL HEAD FOR LAYER  12
 READING ON UNIT   13 WITH FORMAT: (220E15.6)          



                       INITIAL HEAD FOR LAYER  13
 READING ON UNIT   13 WITH FORMAT: (220E15.6)          



                       INITIAL HEAD FOR LAYER  14
 READING ON UNIT   13 WITH FORMAT: (220E15.6)          



                       INITIAL HEAD FOR LAYER  15
 READING ON UNIT   13 WITH FORMAT: (220E15.6)          



                       INITIAL HEAD FOR LAYER  16
 READING ON UNIT   13 WITH FORMAT: (220E15.6)          



                       INITIAL HEAD FOR LAYER  17
 READING ON UNIT   13 WITH FORMAT: (220E15.6)          



                       INITIAL HEAD FOR LAYER  18
 READING ON UNIT   13 WITH FORMAT: (220E15.6)          



                       INITIAL HEAD FOR LAYER  19
 READING ON UNIT   13 WITH FORMAT: (220E15.6)          



                       INITIAL HEAD FOR LAYER  20
 READING ON UNIT   13 WITH FORMAT: (220E15.6)          



                       INITIAL HEAD FOR LAYER  21
 READING ON UNIT   13 WITH FORMAT: (220E15.6)          



                       INITIAL HEAD FOR LAYER  22
 READING ON UNIT   13 WITH FORMAT: (220E15.6)          



                       INITIAL HEAD FOR LAYER  23
 READING ON UNIT   13 WITH FORMAT: (220E15.6)          



                       INITIAL HEAD FOR LAYER  24
 READING ON UNIT   13 WITH FORMAT: (220E15.6)          



                       INITIAL HEAD FOR LAYER  25
 READING ON UNIT   13 WITH FORMAT: (220E15.6)          



                       INITIAL HEAD FOR LAYER  26
 READING ON UNIT   13 WITH FORMAT: (220E15.6)          



                       INITIAL HEAD FOR LAYER  27
 READING ON UNIT   13 WITH FORMAT: (220E15.6)          



                       INITIAL HEAD FOR LAYER  28
 READING ON UNIT   13 WITH FORMAT: (220E15.6)          



                       INITIAL HEAD FOR LAYER  29
 READING ON UNIT   13 WITH FORMAT: (220E15.6)          



                       INITIAL HEAD FOR LAYER  30
 READING ON UNIT   13 WITH FORMAT: (220E15.6)          



                       INITIAL HEAD FOR LAYER  31
 READING ON UNIT   13 WITH FORMAT: (220E15.6)          



                       INITIAL HEAD FOR LAYER  32
 READING ON UNIT   13 WITH FORMAT: (220E15.6)          



                       INITIAL HEAD FOR LAYER  33
 READING ON UNIT   13 WITH FORMAT: (220E15.6)          



                       INITIAL HEAD FOR LAYER  34
 READING ON UNIT   13 WITH FORMAT: (220E15.6)          



                       INITIAL HEAD FOR LAYER  35
 READING ON UNIT   13 WITH FORMAT: (220E15.6)          



                       INITIAL HEAD FOR LAYER  36
 READING ON UNIT   13 WITH FORMAT: (220E15.6)          



                       INITIAL HEAD FOR LAYER  37
 READING ON UNIT   13 WITH FORMAT: (220E15.6)          



                       INITIAL HEAD FOR LAYER  38
 READING ON UNIT   13 WITH FORMAT: (220E15.6)          



                       INITIAL HEAD FOR LAYER  39
 READING ON UNIT   13 WITH FORMAT: (220E15.6)          



                       INITIAL HEAD FOR LAYER  40
 READING ON UNIT   13 WITH FORMAT: (220E15.6)          



                       INITIAL HEAD FOR LAYER  41
 READING ON UNIT   13 WITH FORMAT: (220E15.6)          



                       INITIAL HEAD FOR LAYER  42
 READING ON UNIT   13 WITH FORMAT: (220E15.6)          



                       INITIAL HEAD FOR LAYER  43
 READING ON UNIT   13 WITH FORMAT: (220E15.6)          



                       INITIAL HEAD FOR LAYER  44
 READING ON UNIT   13 WITH FORMAT: (220E15.6)          



                       INITIAL HEAD FOR LAYER  45
 READING ON UNIT   13 WITH FORMAT: (220E15.6)          



                       INITIAL HEAD FOR LAYER  46
 READING ON UNIT   13 WITH FORMAT: (220E15.6)          



                       INITIAL HEAD FOR LAYER  47
 READING ON UNIT   13 WITH FORMAT: (220E15.6)          



                       INITIAL HEAD FOR LAYER  48
 READING ON UNIT   13 WITH FORMAT: (220E15.6)          



                       INITIAL HEAD FOR LAYER  49
 READING ON UNIT   13 WITH FORMAT: (220E15.6)          



                       INITIAL HEAD FOR LAYER  50
 READING ON UNIT   13 WITH FORMAT: (220E15.6)          
 # OC package for MODFLOW-2005 generated by Flopy 3.3.6

 OUTPUT CONTROL IS SPECIFIED ONLY AT TIME STEPS FOR WHICH OUTPUT IS DESIRED
 COMPACT CELL-BY-CELL BUDGET FILES WILL BE WRITTEN
 AUXILIARY DATA WILL BE SAVED IN CELL-BY-CELL BUDGET FILES
 HEAD PRINT FORMAT CODE IS   0    DRAWDOWN PRINT FORMAT CODE IS   0
 HEADS WILL BE SAVED ON UNIT   51    DRAWDOWNS WILL BE SAVED ON UNIT    0

 LPF -- LAYER-PROPERTY FLOW PACKAGE, VERSION 7, 5/2/2005
         INPUT READ FROM UNIT   15
 # LPF package for MODFLOW-2005 generated by Flopy 3.3.6
 CELL-BY-CELL FLOWS WILL BE SAVED ON UNIT   53
 HEAD AT CELLS THAT CONVERT TO DRY= -1.00000E+30
 No named parameters

   LAYER FLAGS:
 LAYER       LAYTYP        LAYAVG         CHANI        LAYVKA        LAYWET
 ---------------------------------------------------------------------------
    1             1             0     1.000E+00             0             0
    2             1             0     1.000E+00             0             0
    3             1             0     1.000E+00             0             0
    4             1             0     1.000E+00             0             0
    5             1             0     1.000E+00             0             0
    6             1             0     1.000E+00             0             0
    7             1             0     1.000E+00             0             0
    8             1             0     1.000E+00             0             0
    9             1             0     1.000E+00             0             0
   10             1             0     1.000E+00             0             0
   11             1             0     1.000E+00             0             0
   12             1             0     1.000E+00             0             0
   13             1             0     1.000E+00             0             0
   14             1             0     1.000E+00             0             0
   15             1             0     1.000E+00             0             0
   16             1             0     1.000E+00             0             0
   17             1             0     1.000E+00             0             0
   18             1             0     1.000E+00             0             0
   19             1             0     1.000E+00             0             0
   20             1             0     1.000E+00             0             0
   21             1             0     1.000E+00             0             0
   22             1             0     1.000E+00             0             0
   23             1             0     1.000E+00             0             0
   24             1             0     1.000E+00             0             0
   25             1             0     1.000E+00             0             0
   26             1             0     1.000E+00             0             0
   27             1             0     1.000E+00             0             0
   28             1             0     1.000E+00             0             0
   29             1             0     1.000E+00             0             0
   30             1             0     1.000E+00             0             0
   31             1             0     1.000E+00             0             0
   32             1             0     1.000E+00             0             0
   33             1             0     1.000E+00             0             0
   34             1             0     1.000E+00             0             0
   35             1             0     1.000E+00             0             0
   36             1             0     1.000E+00             0             0
   37             1             0     1.000E+00             0             0
   38             1             0     1.000E+00             0             0
   39             1             0     1.000E+00             0             0
   40             1             0     1.000E+00             0             0
   41             1             0     1.000E+00             0             0
   42             1             0     1.000E+00             0             0
   43             1             0     1.000E+00             0             0
   44             1             0     1.000E+00             0             0
   45             1             0     1.000E+00             0             0
   46             1             0     1.000E+00             0             0
   47             1             0     1.000E+00             0             0
   48             1             0     1.000E+00             0             0
   49             1             0     1.000E+00             0             0
   50             1             0     1.000E+00             0             0

   INTERPRETATION OF LAYER FLAGS:
                        INTERBLOCK     HORIZONTAL    DATA IN
         LAYER TYPE   TRANSMISSIVITY   ANISOTROPY   ARRAY VKA   WETTABILITY
 LAYER      (LAYTYP)      (LAYAVG)       (CHANI)      (LAYVKA)      (LAYWET)
 ---------------------------------------------------------------------------
    1   CONVERTIBLE      HARMONIC     1.000E+00    VERTICAL K  NON-WETTABLE
    2   CONVERTIBLE      HARMONIC     1.000E+00    VERTICAL K  NON-WETTABLE
    3   CONVERTIBLE      HARMONIC     1.000E+00    VERTICAL K  NON-WETTABLE
    4   CONVERTIBLE      HARMONIC     1.000E+00    VERTICAL K  NON-WETTABLE
    5   CONVERTIBLE      HARMONIC     1.000E+00    VERTICAL K  NON-WETTABLE
    6   CONVERTIBLE      HARMONIC     1.000E+00    VERTICAL K  NON-WETTABLE
    7   CONVERTIBLE      HARMONIC     1.000E+00    VERTICAL K  NON-WETTABLE
    8   CONVERTIBLE      HARMONIC     1.000E+00    VERTICAL K  NON-WETTABLE
    9   CONVERTIBLE      HARMONIC     1.000E+00    VERTICAL K  NON-WETTABLE
   10   CONVERTIBLE      HARMONIC     1.000E+00    VERTICAL K  NON-WETTABLE
   11   CONVERTIBLE      HARMONIC     1.000E+00    VERTICAL K  NON-WETTABLE
   12   CONVERTIBLE      HARMONIC     1.000E+00    VERTICAL K  NON-WETTABLE
   13   CONVERTIBLE      HARMONIC     1.000E+00    VERTICAL K  NON-WETTABLE
   14   CONVERTIBLE      HARMONIC     1.000E+00    VERTICAL K  NON-WETTABLE
   15   CONVERTIBLE      HARMONIC     1.000E+00    VERTICAL K  NON-WETTABLE
   16   CONVERTIBLE      HARMONIC     1.000E+00    VERTICAL K  NON-WETTABLE
   17   CONVERTIBLE      HARMONIC     1.000E+00    VERTICAL K  NON-WETTABLE
   18   CONVERTIBLE      HARMONIC     1.000E+00    VERTICAL K  NON-WETTABLE
   19   CONVERTIBLE      HARMONIC     1.000E+00    VERTICAL K  NON-WETTABLE
   20   CONVERTIBLE      HARMONIC     1.000E+00    VERTICAL K  NON-WETTABLE
   21   CONVERTIBLE      HARMONIC     1.000E+00    VERTICAL K  NON-WETTABLE
   22   CONVERTIBLE      HARMONIC     1.000E+00    VERTICAL K  NON-WETTABLE
   23   CONVERTIBLE      HARMONIC     1.000E+00    VERTICAL K  NON-WETTABLE
   24   CONVERTIBLE      HARMONIC     1.000E+00    VERTICAL K  NON-WETTABLE
   25   CONVERTIBLE      HARMONIC     1.000E+00    VERTICAL K  NON-WETTABLE
   26   CONVERTIBLE      HARMONIC     1.000E+00    VERTICAL K  NON-WETTABLE
   27   CONVERTIBLE      HARMONIC     1.000E+00    VERTICAL K  NON-WETTABLE
   28   CONVERTIBLE      HARMONIC     1.000E+00    VERTICAL K  NON-WETTABLE
   29   CONVERTIBLE      HARMONIC     1.000E+00    VERTICAL K  NON-WETTABLE
   30   CONVERTIBLE      HARMONIC     1.000E+00    VERTICAL K  NON-WETTABLE
   31   CONVERTIBLE      HARMONIC     1.000E+00    VERTICAL K  NON-WETTABLE
   32   CONVERTIBLE      HARMONIC     1.000E+00    VERTICAL K  NON-WETTABLE
   33   CONVERTIBLE      HARMONIC     1.000E+00    VERTICAL K  NON-WETTABLE
   34   CONVERTIBLE      HARMONIC     1.000E+00    VERTICAL K  NON-WETTABLE
   35   CONVERTIBLE      HARMONIC     1.000E+00    VERTICAL K  NON-WETTABLE
   36   CONVERTIBLE      HARMONIC     1.000E+00    VERTICAL K  NON-WETTABLE
   37   CONVERTIBLE      HARMONIC     1.000E+00    VERTICAL K  NON-WETTABLE
   38   CONVERTIBLE      HARMONIC     1.000E+00    VERTICAL K  NON-WETTABLE
   39   CONVERTIBLE      HARMONIC     1.000E+00    VERTICAL K  NON-WETTABLE
   40   CONVERTIBLE      HARMONIC     1.000E+00    VERTICAL K  NON-WETTABLE
   41   CONVERTIBLE      HARMONIC     1.000E+00    VERTICAL K  NON-WETTABLE
   42   CONVERTIBLE      HARMONIC     1.000E+00    VERTICAL K  NON-WETTABLE
   43   CONVERTIBLE      HARMONIC     1.000E+00    VERTICAL K  NON-WETTABLE
   44   CONVERTIBLE      HARMONIC     1.000E+00    VERTICAL K  NON-WETTABLE
   45   CONVERTIBLE      HARMONIC     1.000E+00    VERTICAL K  NON-WETTABLE
   46   CONVERTIBLE      HARMONIC     1.000E+00    VERTICAL K  NON-WETTABLE
   47   CONVERTIBLE      HARMONIC     1.000E+00    VERTICAL K  NON-WETTABLE
   48   CONVERTIBLE      HARMONIC     1.000E+00    VERTICAL K  NON-WETTABLE
   49   CONVERTIBLE      HARMONIC     1.000E+00    VERTICAL K  NON-WETTABLE
   50   CONVERTIBLE      HARMONIC     1.000E+00    VERTICAL K  NON-WETTABLE

 WETTING CAPABILITY IS NOT ACTIVE IN ANY LAYER

    HYD. COND. ALONG ROWS =   6.90000     FOR LAYER   1

      VERTICAL HYD. COND. =  0.690000     FOR LAYER   1

    HYD. COND. ALONG ROWS =   6.90000     FOR LAYER   2

      VERTICAL HYD. COND. =  0.690000     FOR LAYER   2

    HYD. COND. ALONG ROWS =   6.90000     FOR LAYER   3

      VERTICAL HYD. COND. =  0.690000     FOR LAYER   3

    HYD. COND. ALONG ROWS =   6.90000     FOR LAYER   4

      VERTICAL HYD. COND. =  0.690000     FOR LAYER   4

    HYD. COND. ALONG ROWS =   6.90000     FOR LAYER   5

      VERTICAL HYD. COND. =  0.690000     FOR LAYER   5

    HYD. COND. ALONG ROWS =   6.90000     FOR LAYER   6

      VERTICAL HYD. COND. =  0.690000     FOR LAYER   6

    HYD. COND. ALONG ROWS =   6.90000     FOR LAYER   7

      VERTICAL HYD. COND. =  0.690000     FOR LAYER   7

    HYD. COND. ALONG ROWS =   6.90000     FOR LAYER   8

      VERTICAL HYD. COND. =  0.690000     FOR LAYER   8

    HYD. COND. ALONG ROWS =   6.90000     FOR LAYER   9

      VERTICAL HYD. COND. =  0.690000     FOR LAYER   9

    HYD. COND. ALONG ROWS =   6.90000     FOR LAYER  10

      VERTICAL HYD. COND. =  0.690000     FOR LAYER  10

    HYD. COND. ALONG ROWS =   6.90000     FOR LAYER  11

      VERTICAL HYD. COND. =  0.690000     FOR LAYER  11

    HYD. COND. ALONG ROWS =   6.90000     FOR LAYER  12

      VERTICAL HYD. COND. =  0.690000     FOR LAYER  12

    HYD. COND. ALONG ROWS =   6.90000     FOR LAYER  13

      VERTICAL HYD. COND. =  0.690000     FOR LAYER  13

    HYD. COND. ALONG ROWS =   6.90000     FOR LAYER  14

      VERTICAL HYD. COND. =  0.690000     FOR LAYER  14

    HYD. COND. ALONG ROWS =   6.90000     FOR LAYER  15

      VERTICAL HYD. COND. =  0.690000     FOR LAYER  15

    HYD. COND. ALONG ROWS =   6.90000     FOR LAYER  16

      VERTICAL HYD. COND. =  0.690000     FOR LAYER  16

    HYD. COND. ALONG ROWS =   6.90000     FOR LAYER  17

      VERTICAL HYD. COND. =  0.690000     FOR LAYER  17

    HYD. COND. ALONG ROWS =   6.90000     FOR LAYER  18

      VERTICAL HYD. COND. =  0.690000     FOR LAYER  18

    HYD. COND. ALONG ROWS =   6.90000     FOR LAYER  19

      VERTICAL HYD. COND. =  0.690000     FOR LAYER  19

    HYD. COND. ALONG ROWS =   6.90000     FOR LAYER  20

      VERTICAL HYD. COND. =  0.690000     FOR LAYER  20

    HYD. COND. ALONG ROWS =   6.90000     FOR LAYER  21

      VERTICAL HYD. COND. =  0.690000     FOR LAYER  21

    HYD. COND. ALONG ROWS =   6.90000     FOR LAYER  22

      VERTICAL HYD. COND. =  0.690000     FOR LAYER  22

    HYD. COND. ALONG ROWS =   6.90000     FOR LAYER  23

      VERTICAL HYD. COND. =  0.690000     FOR LAYER  23

    HYD. COND. ALONG ROWS =   6.90000     FOR LAYER  24

      VERTICAL HYD. COND. =  0.690000     FOR LAYER  24

    HYD. COND. ALONG ROWS =   6.90000     FOR LAYER  25

      VERTICAL HYD. COND. =  0.690000     FOR LAYER  25

    HYD. COND. ALONG ROWS =   6.90000     FOR LAYER  26

      VERTICAL HYD. COND. =  0.690000     FOR LAYER  26

    HYD. COND. ALONG ROWS =   6.90000     FOR LAYER  27

      VERTICAL HYD. COND. =  0.690000     FOR LAYER  27

    HYD. COND. ALONG ROWS =   6.90000     FOR LAYER  28

      VERTICAL HYD. COND. =  0.690000     FOR LAYER  28

    HYD. COND. ALONG ROWS =   6.90000     FOR LAYER  29

      VERTICAL HYD. COND. =  0.690000     FOR LAYER  29

    HYD. COND. ALONG ROWS =   6.90000     FOR LAYER  30

      VERTICAL HYD. COND. =  0.690000     FOR LAYER  30

    HYD. COND. ALONG ROWS =   6.90000     FOR LAYER  31

      VERTICAL HYD. COND. =  0.690000     FOR LAYER  31

    HYD. COND. ALONG ROWS =   6.90000     FOR LAYER  32

      VERTICAL HYD. COND. =  0.690000     FOR LAYER  32

    HYD. COND. ALONG ROWS =   6.90000     FOR LAYER  33

      VERTICAL HYD. COND. =  0.690000     FOR LAYER  33

    HYD. COND. ALONG ROWS =   6.90000     FOR LAYER  34

      VERTICAL HYD. COND. =  0.690000     FOR LAYER  34

    HYD. COND. ALONG ROWS =   6.90000     FOR LAYER  35

      VERTICAL HYD. COND. =  0.690000     FOR LAYER  35

    HYD. COND. ALONG ROWS =   6.90000     FOR LAYER  36

      VERTICAL HYD. COND. =  0.690000     FOR LAYER  36

    HYD. COND. ALONG ROWS =   6.90000     FOR LAYER  37

      VERTICAL HYD. COND. =  0.690000     FOR LAYER  37

    HYD. COND. ALONG ROWS =   6.90000     FOR LAYER  38

      VERTICAL HYD. COND. =  0.690000     FOR LAYER  38

    HYD. COND. ALONG ROWS =   6.90000     FOR LAYER  39

      VERTICAL HYD. COND. =  0.690000     FOR LAYER  39

    HYD. COND. ALONG ROWS =   6.90000     FOR LAYER  40

      VERTICAL HYD. COND. =  0.690000     FOR LAYER  40

    HYD. COND. ALONG ROWS =   6.90000     FOR LAYER  41

      VERTICAL HYD. COND. =  0.690000     FOR LAYER  41

    HYD. COND. ALONG ROWS =   6.90000     FOR LAYER  42

      VERTICAL HYD. COND. =  0.690000     FOR LAYER  42

    HYD. COND. ALONG ROWS =   6.90000     FOR LAYER  43

      VERTICAL HYD. COND. =  0.690000     FOR LAYER  43

    HYD. COND. ALONG ROWS =   6.90000     FOR LAYER  44

      VERTICAL HYD. COND. =  0.690000     FOR LAYER  44

    HYD. COND. ALONG ROWS =   6.90000     FOR LAYER  45

      VERTICAL HYD. COND. =  0.690000     FOR LAYER  45

    HYD. COND. ALONG ROWS =   6.90000     FOR LAYER  46

      VERTICAL HYD. COND. =  0.690000     FOR LAYER  46

    HYD. COND. ALONG ROWS =   6.90000     FOR LAYER  47

      VERTICAL HYD. COND. =  0.690000     FOR LAYER  47

    HYD. COND. ALONG ROWS =   6.90000     FOR LAYER  48

      VERTICAL HYD. COND. =  0.690000     FOR LAYER  48

    HYD. COND. ALONG ROWS =   6.90000     FOR LAYER  49

      VERTICAL HYD. COND. =  0.690000     FOR LAYER  49

    HYD. COND. ALONG ROWS =   6.90000     FOR LAYER  50

      VERTICAL HYD. COND. =  0.690000     FOR LAYER  50

 PCG -- CONJUGATE-GRADIENT SOLUTION PACKAGE, VERSION 7, 5/2/2005
 # PCG package for MODFLOW-2005 generated by Flopy 3.3.6
 MAXIMUM OF     50 CALLS OF SOLUTION ROUTINE
 MAXIMUM OF     30 INTERNAL ITERATIONS PER CALL TO SOLUTION ROUTINE
 MATRIX PRECONDITIONING TYPE :    1



                                    SOLUTION BY THE CONJUGATE-GRADIENT METHOD
                                   -------------------------------------------
                    MAXIMUM NUMBER OF CALLS TO PCG ROUTINE =       50
                        MAXIMUM ITERATIONS PER CALL TO PCG =       30
                               MATRIX PRECONDITIONING TYPE =        1
        RELAXATION FACTOR (ONLY USED WITH PRECOND. TYPE 1) =    0.10000E+01
 PARAMETER OF POLYNOMIAL PRECOND. = 2 (2) OR IS CALCULATED :        0
                         HEAD CHANGE CRITERION FOR CLOSURE =    0.10000E-02
                     RESIDUAL CHANGE CRITERION FOR CLOSURE =    0.10000E-04
            PCG HEAD AND RESIDUAL CHANGE PRINTOUT INTERVAL =      999
     PRINTING FROM SOLVER IS LIMITED(1) OR SUPPRESSED (>1) =        3
                            STEADY-STATE DAMPING PARAMETER =    0.10000E+01
                               TRANSIENT DAMPING PARAMETER =    0.10000E+01
1
                            STRESS PERIOD NO.    1, LENGTH =   1.000000    
                            -----------------------------------------------

                              NUMBER OF TIME STEPS =     1

                               MULTIPLIER FOR DELT =     1.000

                            INITIAL TIME STEP SIZE =   1.000000    
 
 SOLVING FOR HEAD 

 CELL CONVERSIONS FOR ITER.=  1  LAYER=  1  STEP=  1  PERIOD=   1   (ROW,COL)
    DRY(  2,  1)   DRY(  2,  2)   DRY(  2,  3)   DRY(  2,  4)   DRY(  2,  5)   
    DRY(  2,  6)   DRY(  2,  7)   DRY(  2,  8)   DRY(  2,  9)   DRY(  2, 10)   
    DRY(  2, 11)   DRY(  2, 12)   DRY(  2, 13)   DRY(  2, 14)   DRY(  2, 15)   
    DRY(  2, 16)   DRY(  2, 17)   DRY(  2, 18)   DRY(  2, 19)   DRY(  2, 20)   
    DRY(  2, 21)   DRY(  2, 22)   DRY(  2, 23)   DRY(  2, 24)   DRY(  2, 25)   
    DRY(  2, 26)   DRY(  2, 27)   DRY(  2, 28)   DRY(  2, 29)   DRY(  2, 30)   
    DRY(  2, 31)   DRY(  2, 32)   DRY(  2, 33)   DRY(  2, 34)   DRY(  2, 35)   
    DRY(  2, 36)   DRY(  2, 37)   DRY(  2, 38)   DRY(  2, 39)   DRY(  2, 40)   
    DRY(  2, 41)   DRY(  2, 42)   DRY(  2, 43)   DRY(  2, 44)   DRY(  2, 45)   
    DRY(  2, 46)   DRY(  2, 47)   DRY(  2, 48)   DRY(  2, 49)   DRY(  2, 50)   
    DRY(  2, 51)   DRY(  2, 52)   DRY(  2, 53)   DRY(  2, 54)   DRY(  2, 55)   
    DRY(  2, 56)   DRY(  2, 57)   DRY(  2, 58)   DRY(  2, 59)   DRY(  2, 60)   
    DRY(  2, 61)   DRY(  2, 62)   DRY(  2, 63)   DRY(  2, 64)   DRY(  2, 65)   
    DRY(  2, 66)   DRY(  2, 67)   DRY(  2, 68)   DRY(  2, 69)   DRY(  2, 70)   
    DRY(  2, 71)   DRY(  2, 72)   DRY(  2, 73)   DRY(  2, 74)   DRY(  2, 75)   
    DRY(  2, 76)   DRY(  2, 77)   DRY(  2, 78)   DRY(  2, 79)   DRY(  2, 80)   
    DRY(  2, 81)   DRY(  2, 82)   DRY(  2, 83)   DRY(  2, 84)   DRY(  2, 85)   
    DRY(  2, 86)   DRY(  2, 87)   DRY(  2, 88)   DRY(  2, 89)   DRY(  2, 90)   
    DRY(  2, 91)   DRY(  2, 92)   DRY(  2, 93)   DRY(  2, 94)   DRY(  2, 95)   
    DRY(  2, 96)   DRY(  2, 97)   DRY(  2, 98)   DRY(  2, 99)   DRY(  2,100)   
    DRY(  2,101)   DRY(  2,102)   DRY(  2,103)   DRY(  2,104)   DRY(  2,105)   
    DRY(  2,106)   DRY(  2,107)   DRY(  2,108)   DRY(  2,109)   DRY(  2,110)   
    DRY(  2,111)   DRY(  2,112)   DRY(  2,113)   DRY(  2,114)   DRY(  2,115)   
    DRY(  2,116)   DRY(  2,117)   DRY(  2,118)   DRY(  2,119)   DRY(  2,120)   
    DRY(  2,121)   DRY(  2,122)   DRY(  2,123)   DRY(  2,124)   DRY(  2,125)   
    DRY(  2,126)   DRY(  2,127)   DRY(  2,128)   DRY(  2,129)   DRY(  2,130)   
    DRY(  2,131)   DRY(  2,132)   DRY(  2,133)   DRY(  2,134)   DRY(  2,135)   
    DRY(  2,136)   DRY(  2,137)   DRY(  2,138)   DRY(  2,139)   DRY(  2,140)   
    DRY(  2,141)   DRY(  2,142)   DRY(  2,143)   DRY(  2,144)   DRY(  2,145)   
    DRY(  2,146)   DRY(  2,147)   DRY(  2,148)   DRY(  2,149)   DRY(  2,150)   
    DRY(  2,151)   DRY(  2,152)   DRY(  2,153)   DRY(  2,154)   DRY(  2,155)   
    DRY(  2,156)   DRY(  2,157)   DRY(  2,158)   DRY(  2,159)   DRY(  2,160)   
    DRY(  2,161)   DRY(  2,162)   DRY(  2,163)   DRY(  2,164)   DRY(  2,165)   
    DRY(  2,166)   DRY(  2,167)   DRY(  2,168)   DRY(  2,169)   DRY(  2,170)   
    DRY(  2,171)   DRY(  2,172)   DRY(  2,173)   DRY(  2,174)   DRY(  2,175)   
    DRY(  2,176)   DRY(  2,177)   DRY(  2,178)   DRY(  2,179)   DRY(  2,180)   
    DRY(  2,181)   DRY(  2,182)   DRY(  2,183)   DRY(  2,184)   DRY(  2,185)   
    DRY(  2,186)   DRY(  2,187)   DRY(  2,188)   DRY(  2,189)   DRY(  2,190)   
    DRY(  2,191)   DRY(  2,192)   DRY(  2,193)   DRY(  2,194)   DRY(  2,195)   
    DRY(  2,196)   DRY(  2,197)   DRY(  2,198)   DRY(  2,199)   DRY(  2,200)   
    DRY(  2,201)   DRY(  2,202)   DRY(  2,203)   DRY(  2,204)   DRY(  2,205)   
    DRY(  2,206)   DRY(  2,207)   DRY(  2,208)   DRY(  2,209)   DRY(  2,210)   
    DRY(  2,211)   DRY(  2,212)   DRY(  2,213)   DRY(  2,214)   DRY(  2,215)   
    DRY(  2,216)   DRY(  2,217)   DRY(  2,218)   DRY(  2,219)   DRY(  2,220)   
    DRY(  3,  1)   DRY(  3,  2)   DRY(  3,  3)   DRY(  3,  4)   DRY(  3,  5)   
    DRY(  3,  6)   DRY(  3,  7)   DRY(  3,  8)   DRY(  3,  9)   DRY(  3, 10)   
    DRY(  3, 11)   DRY(  3, 12)   DRY(  3, 13)   DRY(  3, 14)   DRY(  3, 15)   
    DRY(  3, 16)   DRY(  3, 17)   DRY(  3, 18)   DRY(  3, 19)   DRY(  3, 20)   
    DRY(  3, 21)   DRY(  3, 22)   DRY(  3, 23)   DRY(  3, 24)   DRY(  3, 25)   
    DRY(  3, 26)   DRY(  3, 27)   DRY(  3, 28)   DRY(  3, 29)   DRY(  3, 30)   
    DRY(  3, 31)   DRY(  3, 32)   DRY(  3, 33)   DRY(  3, 34)   DRY(  3, 35)   
    DRY(  3, 36)   DRY(  3, 37)   DRY(  3, 38)   DRY(  3, 39)   DRY(  3, 40)   
    DRY(  3, 41)   DRY(  3, 42)   DRY(  3, 43)   DRY(  3, 44)   DRY(  3, 45)   
    DRY(  3, 46)   DRY(  3, 47)   DRY(  3, 48)   DRY(  3, 49)   DRY(  3, 50)   
    DRY(  3, 51)   DRY(  3, 52)   DRY(  3, 53)   DRY(  3, 54)   DRY(  3, 55)   
    DRY(  3, 56)   DRY(  3, 57)   DRY(  3, 58)   DRY(  3, 59)   DRY(  3, 60)   
    DRY(  3, 61)   DRY(  3, 62)   DRY(  3, 63)   DRY(  3, 64)   DRY(  3, 65)   
    DRY(  3, 66)   DRY(  3, 67)   DRY(  3, 68)   DRY(  3, 69)   DRY(  3, 70)   
    DRY(  3, 71)   DRY(  3, 72)   DRY(  3, 73)   DRY(  3, 74)   DRY(  3, 75)   
    DRY(  3, 76)   DRY(  3, 77)   DRY(  3, 78)   DRY(  3, 79)   DRY(  3, 80)   
    DRY(  3, 81)   DRY(  3, 82)   DRY(  3, 83)   DRY(  3, 84)   DRY(  3, 85)   
    DRY(  3, 86)   DRY(  3, 87)   DRY(  3, 88)   DRY(  3, 89)   DRY(  3, 90)   
    DRY(  3, 91)   DRY(  3, 92)   DRY(  3, 93)   DRY(  3, 94)   DRY(  3, 95)   
    DRY(  3, 96)   DRY(  3, 97)   DRY(  3, 98)   DRY(  3, 99)   DRY(  3,100)   
    DRY(  3,101)   DRY(  3,102)   DRY(  3,103)   DRY(  3,104)   DRY(  3,105)   
    DRY(  3,106)   DRY(  3,107)   DRY(  3,108)   DRY(  3,109)   DRY(  3,110)   
    DRY(  3,111)   DRY(  3,112)   DRY(  3,113)   DRY(  3,114)   DRY(  3,115)   
    DRY(  3,116)   DRY(  3,117)   DRY(  3,118)   DRY(  3,119)   DRY(  3,120)   
    DRY(  3,121)   DRY(  3,122)   DRY(  3,123)   DRY(  3,124)   DRY(  3,125)   
    DRY(  3,126)   DRY(  3,127)   DRY(  3,128)   DRY(  3,129)   DRY(  3,130)   
    DRY(  3,131)   DRY(  3,132)   DRY(  3,133)   DRY(  3,134)   DRY(  3,135)   
    DRY(  3,136)   DRY(  3,137)   DRY(  3,138)   DRY(  3,139)   DRY(  3,140)   
    DRY(  3,141)   DRY(  3,142)   DRY(  3,143)   DRY(  3,144)   DRY(  3,145)   
    DRY(  3,146)   DRY(  3,147)   DRY(  3,148)   DRY(  3,149)   DRY(  3,150)   
    DRY(  3,151)   DRY(  3,152)   DRY(  3,153)   DRY(  3,154)   DRY(  3,155)   
    DRY(  3,156)   DRY(  3,157)   DRY(  3,158)   DRY(  3,159)   DRY(  3,160)   
    DRY(  3,161)   DRY(  3,162)   DRY(  3,163)   DRY(  3,164)   DRY(  3,165)   
    DRY(  3,166)   DRY(  3,167)   DRY(  3,168)   DRY(  3,169)   DRY(  3,170)   
    DRY(  3,171)   DRY(  3,172)   DRY(  3,173)   DRY(  3,174)   DRY(  3,175)   
    DRY(  3,176)   DRY(  3,177)   DRY(  3,178)   DRY(  3,179)   DRY(  3,180)   
    DRY(  3,181)   DRY(  3,182)   DRY(  3,183)   DRY(  3,184)   DRY(  3,185)   
    DRY(  3,186)   DRY(  3,187)   DRY(  3,188)   DRY(  3,189)   DRY(  3,190)   
    DRY(  3,191)   DRY(  3,192)   DRY(  3,193)   DRY(  3,194)   DRY(  3,195)   
    DRY(  3,196)   DRY(  3,197)   DRY(  3,198)   DRY(  3,199)   DRY(  3,200)   
    DRY(  3,201)   DRY(  3,202)   DRY(  3,203)   DRY(  3,204)   DRY(  3,205)   
    DRY(  3,206)   DRY(  3,207)   DRY(  3,208)   DRY(  3,209)   DRY(  3,210)   
    DRY(  3,211)   DRY(  3,212)   DRY(  3,213)   DRY(  3,214)   DRY(  3,215)   
    DRY(  3,216)   DRY(  3,217)   DRY(  3,218)   DRY(  3,219)   DRY(  3,220)   
    DRY(  4,  1)   DRY(  4,  2)   DRY(  4,  3)   DRY(  4,  4)   DRY(  4,  5)   
    DRY(  4,  6)   DRY(  4,  7)   DRY(  4,  8)   DRY(  4,  9)   DRY(  4, 10)   
    DRY(  4, 11)   DRY(  4, 12)   DRY(  4, 13)   DRY(  4, 14)   DRY(  4, 15)   
    DRY(  4, 16)   DRY(  4, 17)   DRY(  4, 18)   DRY(  4, 19)   DRY(  4, 20)   
    DRY(  4, 21)   DRY(  4, 22)   DRY(  4, 23)   DRY(  4, 24)   DRY(  4, 25)   
    DRY(  4, 26)   DRY(  4, 27)   DRY(  4, 28)   DRY(  4, 29)   DRY(  4, 30)   
    DRY(  4, 31)   DRY(  4, 32)   DRY(  4, 33)   DRY(  4, 34)   DRY(  4, 35)   
    DRY(  4, 36)   DRY(  4, 37)   DRY(  4, 38)   DRY(  4, 39)   DRY(  4, 40)   
    DRY(  4, 41)   DRY(  4, 42)   DRY(  4, 43)   DRY(  4, 44)   DRY(  4, 45)   
    DRY(  4, 46)   DRY(  4, 47)   DRY(  4, 48)   DRY(  4, 49)   DRY(  4, 50)   
    DRY(  4, 51)   DRY(  4, 52)   DRY(  4, 53)   DRY(  4, 54)   DRY(  4, 55)   
    DRY(  4, 56)   DRY(  4, 57)   DRY(  4, 58)   DRY(  4, 59)   DRY(  4, 60)   
    DRY(  4, 61)   DRY(  4, 62)   DRY(  4, 63)   DRY(  4, 64)   DRY(  4, 65)   
    DRY(  4, 66)   DRY(  4, 67)   DRY(  4, 68)   DRY(  4, 69)   DRY(  4, 70)   
    DRY(  4, 71)   DRY(  4, 72)   DRY(  4, 73)   DRY(  4, 74)   DRY(  4, 75)   
    DRY(  4, 76)   DRY(  4, 77)   DRY(  4, 78)   DRY(  4, 79)   DRY(  4, 80)   
    DRY(  4, 81)   DRY(  4, 82)   DRY(  4, 83)   DRY(  4, 84)   DRY(  4, 85)   
    DRY(  4, 86)   DRY(  4, 87)   DRY(  4, 88)   DRY(  4, 89)   DRY(  4, 90)   
    DRY(  4, 91)   DRY(  4, 92)   DRY(  4, 93)   DRY(  4, 94)   DRY(  4, 95)   
    DRY(  4, 96)   DRY(  4, 97)   DRY(  4, 98)   DRY(  4, 99)   DRY(  4,100)   
    DRY(  4,101)   DRY(  4,102)   DRY(  4,103)   DRY(  4,104)   DRY(  4,105)   
    DRY(  4,106)   DRY(  4,107)   DRY(  4,108)   DRY(  4,109)   DRY(  4,110)   
    DRY(  4,111)   DRY(  4,112)   DRY(  4,113)   DRY(  4,114)   DRY(  4,115)   
    DRY(  4,116)   DRY(  4,117)   DRY(  4,118)   DRY(  4,119)   DRY(  4,120)   
    DRY(  4,121)   DRY(  4,122)   DRY(  4,123)   DRY(  4,124)   DRY(  4,125)   
    DRY(  4,126)   DRY(  4,127)   DRY(  4,128)   DRY(  4,129)   DRY(  4,130)   
    DRY(  4,131)   DRY(  4,132)   DRY(  4,133)   DRY(  4,134)   DRY(  4,135)   
    DRY(  4,136)   DRY(  4,137)   DRY(  4,138)   DRY(  4,139)   DRY(  4,140)   
    DRY(  4,141)   DRY(  4,142)   DRY(  4,143)   DRY(  4,144)   DRY(  4,145)   
    DRY(  4,146)   DRY(  4,147)   DRY(  4,148)   DRY(  4,149)   DRY(  4,150)   
    DRY(  4,151)   DRY(  4,152)   DRY(  4,153)   DRY(  4,154)   DRY(  4,155)   
    DRY(  4,156)   DRY(  4,157)   DRY(  4,158)   DRY(  4,159)   DRY(  4,160)   
    DRY(  4,161)   DRY(  4,162)   DRY(  4,163)   DRY(  4,164)   DRY(  4,165)   
    DRY(  4,166)   DRY(  4,167)   DRY(  4,168)   DRY(  4,169)   DRY(  4,170)   
    DRY(  4,171)   DRY(  4,172)   DRY(  4,173)   DRY(  4,174)   DRY(  4,175)   
    DRY(  4,176)   DRY(  4,177)   DRY(  4,178)   DRY(  4,179)   DRY(  4,180)   
    DRY(  4,181)   DRY(  4,182)   DRY(  4,183)   DRY(  4,184)   DRY(  4,185)   
    DRY(  4,186)   DRY(  4,187)   DRY(  4,188)   DRY(  4,189)   DRY(  4,190)   
    DRY(  4,191)   DRY(  4,192)   DRY(  4,193)   DRY(  4,194)   DRY(  4,195)   
    DRY(  4,196)   DRY(  4,197)   DRY(  4,198)   DRY(  4,199)   DRY(  4,200)   
    DRY(  4,201)   DRY(  4,202)   DRY(  4,203)   DRY(  4,204)   DRY(  4,205)   
    DRY(  4,206)   DRY(  4,207)   DRY(  4,208)   DRY(  4,209)   DRY(  4,210)   
    DRY(  4,211)   DRY(  4,212)   DRY(  4,213)   DRY(  4,214)   DRY(  4,215)   
    DRY(  4,216)   DRY(  4,217)   DRY(  4,218)   DRY(  4,219)   DRY(  4,220)   
    DRY(  5,  1)   DRY(  5,  2)   DRY(  5,  3)   DRY(  5,  4)   DRY(  5,  5)   
    DRY(  5,  6)   DRY(  5,  7)   DRY(  5,  8)   DRY(  5,  9)   DRY(  5, 10)   
    DRY(  5, 11)   DRY(  5, 12)   DRY(  5, 13)   DRY(  5, 14)   DRY(  5, 15)   
    DRY(  5, 16)   DRY(  5, 17)   DRY(  5, 18)   DRY(  5, 19)   DRY(  5, 20)   
    DRY(  5, 21)   DRY(  5, 22)   DRY(  5, 23)   DRY(  5, 24)   DRY(  5, 25)   
    DRY(  5, 26)   DRY(  5, 27)   DRY(  5, 28)   DRY(  5, 29)   DRY(  5, 30)   
    DRY(  5, 31)   DRY(  5, 32)   DRY(  5, 33)   DRY(  5, 34)   DRY(  5, 35)   
    DRY(  5, 36)   DRY(  5, 37)   DRY(  5, 38)   DRY(  5, 39)   DRY(  5, 40)   
    DRY(  5, 41)   DRY(  5, 42)   DRY(  5, 43)   DRY(  5, 44)   DRY(  5, 45)   
    DRY(  5, 46)   DRY(  5, 47)   DRY(  5, 48)   DRY(  5, 49)   DRY(  5, 50)   
    DRY(  5, 51)   DRY(  5, 52)   DRY(  5, 53)   DRY(  5, 54)   DRY(  5, 55)   
    DRY(  5, 56)   DRY(  5, 57)   DRY(  5, 58)   DRY(  5, 59)   DRY(  5, 60)   
    DRY(  5, 61)   DRY(  5, 62)   DRY(  5, 63)   DRY(  5, 64)   DRY(  5, 65)   
    DRY(  5, 66)   DRY(  5, 67)   DRY(  5, 68)   DRY(  5, 69)   DRY(  5, 70)   
    DRY(  5, 71)   DRY(  5, 72)   DRY(  5, 73)   DRY(  5, 74)   DRY(  5, 75)   
    DRY(  5, 76)   DRY(  5, 77)   DRY(  5, 78)   DRY(  5, 79)   DRY(  5, 80)   
    DRY(  5, 81)   DRY(  5, 82)   DRY(  5, 83)   DRY(  5, 84)   DRY(  5, 85)   
    DRY(  5, 86)   DRY(  5, 87)   DRY(  5, 88)   DRY(  5, 89)   DRY(  5, 90)   
    DRY(  5, 91)   DRY(  5, 92)   DRY(  5, 93)   DRY(  5, 94)   DRY(  5, 95)   
    DRY(  5, 96)   DRY(  5, 97)   DRY(  5, 98)   DRY(  5, 99)   DRY(  5,100)   
    DRY(  5,101)   DRY(  5,102)   DRY(  5,103)   DRY(  5,104)   DRY(  5,105)   
    DRY(  5,106)   DRY(  5,107)   DRY(  5,108)   DRY(  5,109)   DRY(  5,110)   
    DRY(  5,111)   DRY(  5,112)   DRY(  5,113)   DRY(  5,114)   DRY(  5,115)   
    DRY(  5,116)   DRY(  5,117)   DRY(  5,118)   DRY(  5,119)   DRY(  5,120)   
    DRY(  5,121)   DRY(  5,122)   DRY(  5,123)   DRY(  5,124)   DRY(  5,125)   
    DRY(  5,126)   DRY(  5,127)   DRY(  5,128)   DRY(  5,129)   DRY(  5,130)   
    DRY(  5,131)   DRY(  5,132)   DRY(  5,133)   DRY(  5,134)   DRY(  5,135)   
    DRY(  5,136)   DRY(  5,137)   DRY(  5,138)   DRY(  5,139)   DRY(  5,140)   
    DRY(  5,141)   DRY(  5,142)   DRY(  5,143)   DRY(  5,144)   DRY(  5,145)   
    DRY(  5,146)   DRY(  5,147)   DRY(  5,148)   DRY(  5,149)   DRY(  5,150)   
    DRY(  5,151)   DRY(  5,152)   DRY(  5,153)   DRY(  5,154)   DRY(  5,155)   
    DRY(  5,156)   DRY(  5,157)   DRY(  5,158)   DRY(  5,159)   DRY(  5,160)   
    DRY(  5,161)   DRY(  5,162)   DRY(  5,163)   DRY(  5,164)   DRY(  5,165)   
    DRY(  5,166)   DRY(  5,167)   DRY(  5,168)   DRY(  5,169)   DRY(  5,170)   
    DRY(  5,171)   DRY(  5,172)   DRY(  5,173)   DRY(  5,174)   DRY(  5,175)   
    DRY(  5,176)   DRY(  5,177)   DRY(  5,178)   DRY(  5,179)   DRY(  5,180)   
    DRY(  5,181)   DRY(  5,182)   DRY(  5,183)   DRY(  5,184)   DRY(  5,185)   
    DRY(  5,186)   DRY(  5,187)   DRY(  5,188)   DRY(  5,189)   DRY(  5,190)   
    DRY(  5,191)   DRY(  5,192)   DRY(  5,193)   DRY(  5,194)   DRY(  5,195)   
    DRY(  5,196)   DRY(  5,197)   DRY(  5,198)   DRY(  5,199)   DRY(  5,200)   
    DRY(  5,201)   DRY(  5,202)   DRY(  5,203)   DRY(  5,204)   DRY(  5,205)   
    DRY(  5,206)   DRY(  5,207)   DRY(  5,208)   DRY(  5,209)   DRY(  5,210)   
    DRY(  5,211)   DRY(  5,212)   DRY(  5,213)   DRY(  5,214)   DRY(  5,215)   
    DRY(  5,216)   DRY(  5,217)   DRY(  5,218)   DRY(  5,219)   DRY(  5,220)   
    DRY(  6,  1)   DRY(  6,  2)   DRY(  6,  3)   DRY(  6,  4)   DRY(  6,  5)   
    DRY(  6,  6)   DRY(  6,  7)   DRY(  6,  8)   DRY(  6,  9)   DRY(  6, 10)   
    DRY(  6, 11)   DRY(  6, 12)   DRY(  6, 13)   DRY(  6, 14)   DRY(  6, 15)   
    DRY(  6, 16)   DRY(  6, 17)   DRY(  6, 18)   DRY(  6, 19)   DRY(  6, 20)   
    DRY(  6, 21)   DRY(  6, 22)   DRY(  6, 23)   DRY(  6, 24)   DRY(  6, 25)   
    DRY(  6, 26)   DRY(  6, 27)   DRY(  6, 28)   DRY(  6, 29)   DRY(  6, 30)   
    DRY(  6, 31)   DRY(  6, 32)   DRY(  6, 33)   DRY(  6, 34)   DRY(  6, 35)   
    DRY(  6, 36)   DRY(  6, 37)   DRY(  6, 38)   DRY(  6, 39)   DRY(  6, 40)   
    DRY(  6, 41)   DRY(  6, 42)   DRY(  6, 43)   DRY(  6, 44)   DRY(  6, 45)   
    DRY(  6, 46)   DRY(  6, 47)   DRY(  6, 48)   DRY(  6, 49)   DRY(  6, 50)   
    DRY(  6, 51)   DRY(  6, 52)   DRY(  6, 53)   DRY(  6, 54)   DRY(  6, 55)   
    DRY(  6, 56)   DRY(  6, 57)   DRY(  6, 58)   DRY(  6, 59)   DRY(  6, 60)   
    DRY(  6, 61)   DRY(  6, 62)   DRY(  6, 63)   DRY(  6, 64)   DRY(  6, 65)   
    DRY(  6, 66)   DRY(  6, 67)   DRY(  6, 68)   DRY(  6, 69)   DRY(  6, 70)   
    DRY(  6, 71)   DRY(  6, 72)   DRY(  6, 73)   DRY(  6, 74)   DRY(  6, 75)   
    DRY(  6, 76)   DRY(  6, 77)   DRY(  6, 78)   DRY(  6, 79)   DRY(  6, 80)   
    DRY(  6, 81)   DRY(  6, 82)   DRY(  6, 83)   DRY(  6, 84)   DRY(  6, 85)   
    DRY(  6, 86)   DRY(  6, 87)   DRY(  6, 88)   DRY(  6, 89)   DRY(  6, 90)   
    DRY(  6, 91)   DRY(  6, 92)   DRY(  6, 93)   DRY(  6, 94)   DRY(  6, 95)   
    DRY(  6, 96)   DRY(  6, 97)   DRY(  6, 98)   DRY(  6, 99)   DRY(  6,100)   
    DRY(  6,101)   DRY(  6,102)   DRY(  6,103)   DRY(  6,104)   DRY(  6,105)   
    DRY(  6,106)   DRY(  6,107)   DRY(  6,108)   DRY(  6,109)   DRY(  6,110)   
    DRY(  6,111)   DRY(  6,112)   DRY(  6,113)   DRY(  6,114)   DRY(  6,115)   
    DRY(  6,116)   DRY(  6,117)   DRY(  6,118)   DRY(  6,119)   DRY(  6,120)   
    DRY(  6,121)   DRY(  6,122)   DRY(  6,123)   DRY(  6,124)   DRY(  6,125)   
    DRY(  6,126)   DRY(  6,127)   DRY(  6,128)   DRY(  6,129)   DRY(  6,130)   
    DRY(  6,131)   DRY(  6,132)   DRY(  6,133)   DRY(  6,134)   DRY(  6,135)   
    DRY(  6,136)   DRY(  6,137)   DRY(  6,138)   DRY(  6,139)   DRY(  6,140)   
    DRY(  6,141)   DRY(  6,142)   DRY(  6,143)   DRY(  6,144)   DRY(  6,145)   
    DRY(  6,146)   DRY(  6,147)   DRY(  6,148)   DRY(  6,149)   DRY(  6,150)   
    DRY(  6,151)   DRY(  6,152)   DRY(  6,153)   DRY(  6,154)   DRY(  6,155)   
    DRY(  6,156)   DRY(  6,157)   DRY(  6,158)   DRY(  6,159)   DRY(  6,160)   
    DRY(  6,161)   DRY(  6,162)   DRY(  6,163)   DRY(  6,164)   DRY(  6,165)   
    DRY(  6,166)   DRY(  6,167)   DRY(  6,168)   DRY(  6,169)   DRY(  6,170)   
    DRY(  6,171)   DRY(  6,172)   DRY(  6,173)   DRY(  6,174)   DRY(  6,175)   
    DRY(  6,176)   DRY(  6,177)   DRY(  6,178)   DRY(  6,179)   DRY(  6,180)   
    DRY(  6,181)   DRY(  6,182)   DRY(  6,183)   DRY(  6,184)   DRY(  6,185)   
    DRY(  6,186)   DRY(  6,187)   DRY(  6,188)   DRY(  6,189)   DRY(  6,190)   
    DRY(  6,191)   DRY(  6,192)   DRY(  6,193)   DRY(  6,194)   DRY(  6,195)   
    DRY(  6,196)   DRY(  6,197)   DRY(  6,198)   DRY(  6,199)   DRY(  6,200)   
    DRY(  6,201)   DRY(  6,202)   DRY(  6,203)   DRY(  6,204)   DRY(  6,205)   
    DRY(  6,206)   DRY(  6,207)   DRY(  6,208)   DRY(  6,209)   DRY(  6,210)   
    DRY(  6,211)   DRY(  6,212)   DRY(  6,213)   DRY(  6,214)   DRY(  6,215)   
    DRY(  6,216)   DRY(  6,217)   DRY(  6,218)   DRY(  6,219)   DRY(  6,220)   
    DRY(  7,  1)   DRY(  7,  2)   DRY(  7,  3)   DRY(  7,  4)   DRY(  7,  5)   
    DRY(  7,  6)   DRY(  7,  7)   DRY(  7,  8)   DRY(  7,  9)   DRY(  7, 10)   
    DRY(  7, 11)   DRY(  7, 12)   DRY(  7, 13)   DRY(  7, 14)   DRY(  7, 15)   
    DRY(  7, 16)   DRY(  7, 17)   DRY(  7, 18)   DRY(  7, 19)   DRY(  7, 20)   
    DRY(  7, 21)   DRY(  7, 22)   DRY(  7, 23)   DRY(  7, 24)   DRY(  7, 25)   
    DRY(  7, 26)   DRY(  7, 27)   DRY(  7, 28)   DRY(  7, 29)   DRY(  7, 30)   
    DRY(  7, 31)   DRY(  7, 32)   DRY(  7, 33)   DRY(  7, 34)   DRY(  7, 35)   
    DRY(  7, 36)   DRY(  7, 37)   DRY(  7, 38)   DRY(  7, 39)   DRY(  7, 40)   
    DRY(  7, 41)   DRY(  7, 42)   DRY(  7, 43)   DRY(  7, 44)   DRY(  7, 45)   
    DRY(  7, 46)   DRY(  7, 47)   DRY(  7, 48)   DRY(  7, 49)   DRY(  7, 50)   
    DRY(  7, 51)   DRY(  7, 52)   DRY(  7, 53)   DRY(  7, 54)   DRY(  7, 55)   
    DRY(  7, 56)   DRY(  7, 57)   DRY(  7, 58)   DRY(  7, 59)   DRY(  7, 60)   
    DRY(  7, 61)   DRY(  7, 62)   DRY(  7, 63)   DRY(  7, 64)   DRY(  7, 65)   
    DRY(  7, 66)   DRY(  7, 67)   DRY(  7, 68)   DRY(  7, 69)   DRY(  7, 70)   
    DRY(  7, 71)   DRY(  7, 72)   DRY(  7, 73)   DRY(  7, 74)   DRY(  7, 75)   
    DRY(  7, 76)   DRY(  7, 77)   DRY(  7, 78)   DRY(  7, 79)   DRY(  7, 80)   
    DRY(  7, 81)   DRY(  7, 82)   DRY(  7, 83)   DRY(  7, 84)   DRY(  7, 85)   
    DRY(  7, 86)   DRY(  7, 87)   DRY(  7, 88)   DRY(  7, 89)   DRY(  7, 90)   
    DRY(  7, 91)   DRY(  7, 92)   DRY(  7, 93)   DRY(  7, 94)   DRY(  7, 95)   
    DRY(  7, 96)   DRY(  7, 97)   DRY(  7, 98)   DRY(  7, 99)   DRY(  7,100)   
    DRY(  7,101)   DRY(  7,102)   DRY(  7,103)   DRY(  7,104)   DRY(  7,105)   
    DRY(  7,106)   DRY(  7,107)   DRY(  7,108)   DRY(  7,109)   DRY(  7,110)   
    DRY(  7,111)   DRY(  7,112)   DRY(  7,113)   DRY(  7,114)   DRY(  7,115)   
    DRY(  7,116)   DRY(  7,117)   DRY(  7,118)   DRY(  7,119)   DRY(  7,120)   
    DRY(  7,121)   DRY(  7,122)   DRY(  7,123)   DRY(  7,124)   DRY(  7,125)   
    DRY(  7,126)   DRY(  7,127)   DRY(  7,128)   DRY(  7,129)   DRY(  7,130)   
    DRY(  7,131)   DRY(  7,132)   DRY(  7,133)   DRY(  7,134)   DRY(  7,135)   
    DRY(  7,136)   DRY(  7,137)   DRY(  7,138)   DRY(  7,139)   DRY(  7,140)   
    DRY(  7,141)   DRY(  7,142)   DRY(  7,143)   DRY(  7,144)   DRY(  7,145)   
    DRY(  7,146)   DRY(  7,147)   DRY(  7,148)   DRY(  7,149)   DRY(  7,150)   
    DRY(  7,151)   DRY(  7,152)   DRY(  7,153)   DRY(  7,154)   DRY(  7,155)   
    DRY(  7,156)   DRY(  7,157)   DRY(  7,158)   DRY(  7,159)   DRY(  7,160)   
    DRY(  7,161)   DRY(  7,162)   DRY(  7,163)   DRY(  7,164)   DRY(  7,165)   
    DRY(  7,166)   DRY(  7,167)   DRY(  7,168)   DRY(  7,169)   DRY(  7,170)   
    DRY(  7,171)   DRY(  7,172)   DRY(  7,173)   DRY(  7,174)   DRY(  7,175)   
    DRY(  7,176)   DRY(  7,177)   DRY(  7,178)   DRY(  7,179)   DRY(  7,180)   
    DRY(  7,181)   DRY(  7,182)   DRY(  7,183)   DRY(  7,184)   DRY(  7,185)   
    DRY(  7,186)   DRY(  7,187)   DRY(  7,188)   DRY(  7,189)   DRY(  7,190)   
    DRY(  7,191)   DRY(  7,192)   DRY(  7,193)   DRY(  7,194)   DRY(  7,195)   
    DRY(  7,196)   DRY(  7,197)   DRY(  7,198)   DRY(  7,199)   DRY(  7,200)   
    DRY(  7,201)   DRY(  7,202)   DRY(  7,203)   DRY(  7,204)   DRY(  7,205)   
    DRY(  7,206)   DRY(  7,207)   DRY(  7,208)   DRY(  7,209)   DRY(  7,210)   
    DRY(  7,211)   DRY(  7,212)   DRY(  7,213)   DRY(  7,214)   DRY(  7,215)   
    DRY(  7,216)   DRY(  7,217)   DRY(  7,218)   DRY(  7,219)   DRY(  7,220)   
    DRY(  8,  1)   DRY(  8,  2)   DRY(  8,  3)   DRY(  8,  4)   DRY(  8,  5)   
    DRY(  8,  6)   DRY(  8,  7)   DRY(  8,  8)   DRY(  8,  9)   DRY(  8, 10)   
    DRY(  8, 11)   DRY(  8, 12)   DRY(  8, 13)   DRY(  8, 14)   DRY(  8, 15)   
    DRY(  8, 16)   DRY(  8, 17)   DRY(  8, 18)   DRY(  8, 19)   DRY(  8, 20)   
    DRY(  8, 21)   DRY(  8, 22)   DRY(  8, 23)   DRY(  8, 24)   DRY(  8, 25)   
    DRY(  8, 26)   DRY(  8, 27)   DRY(  8, 28)   DRY(  8, 29)   DRY(  8, 30)   
    DRY(  8, 31)   DRY(  8, 32)   DRY(  8, 33)   DRY(  8, 34)   DRY(  8, 35)   
    DRY(  8, 36)   DRY(  8, 37)   DRY(  8, 38)   DRY(  8, 39)   DRY(  8, 40)   
    DRY(  8, 41)   DRY(  8, 42)   DRY(  8, 43)   DRY(  8, 44)   DRY(  8, 45)   
    DRY(  8, 46)   DRY(  8, 47)   DRY(  8, 48)   DRY(  8, 49)   DRY(  8, 50)   
    DRY(  8, 51)   DRY(  8, 52)   DRY(  8, 53)   DRY(  8, 54)   DRY(  8, 55)   
    DRY(  8, 56)   DRY(  8, 57)   DRY(  8, 58)   DRY(  8, 59)   DRY(  8, 60)   
    DRY(  8, 61)   DRY(  8, 62)   DRY(  8, 63)   DRY(  8, 64)   DRY(  8, 65)   
    DRY(  8, 66)   DRY(  8, 67)   DRY(  8, 68)   DRY(  8, 69)   DRY(  8, 70)   
    DRY(  8, 71)   DRY(  8, 72)   DRY(  8, 73)   DRY(  8, 74)   DRY(  8, 75)   
    DRY(  8, 76)   DRY(  8, 77)   DRY(  8, 78)   DRY(  8, 79)   DRY(  8, 80)   
    DRY(  8, 81)   DRY(  8, 82)   DRY(  8, 83)   DRY(  8, 84)   DRY(  8, 85)   
    DRY(  8, 86)   DRY(  8, 87)   DRY(  8, 88)   DRY(  8, 89)   DRY(  8, 90)   
    DRY(  8, 91)   DRY(  8, 92)   DRY(  8, 93)   DRY(  8, 94)   DRY(  8, 95)   
    DRY(  8, 96)   DRY(  8, 97)   DRY(  8, 98)   DRY(  8, 99)   DRY(  8,100)   
    DRY(  8,101)   DRY(  8,102)   DRY(  8,103)   DRY(  8,104)   DRY(  8,105)   
    DRY(  8,106)   DRY(  8,107)   DRY(  8,108)   DRY(  8,109)   DRY(  8,110)   
    DRY(  8,111)   DRY(  8,112)   DRY(  8,113)   DRY(  8,114)   DRY(  8,115)   
    DRY(  8,116)   DRY(  8,117)   DRY(  8,118)   DRY(  8,119)   DRY(  8,120)   
    DRY(  8,121)   DRY(  8,122)   DRY(  8,123)   DRY(  8,124)   DRY(  8,125)   
    DRY(  8,126)   DRY(  8,127)   DRY(  8,128)   DRY(  8,129)   DRY(  8,130)   
    DRY(  8,131)   DRY(  8,132)   DRY(  8,133)   DRY(  8,134)   DRY(  8,135)   
    DRY(  8,136)   DRY(  8,137)   DRY(  8,138)   DRY(  8,139)   DRY(  8,140)   
    DRY(  8,141)   DRY(  8,142)   DRY(  8,143)   DRY(  8,144)   DRY(  8,145)   
    DRY(  8,146)   DRY(  8,147)   DRY(  8,148)   DRY(  8,149)   DRY(  8,150)   
    DRY(  8,151)   DRY(  8,152)   DRY(  8,153)   DRY(  8,154)   DRY(  8,155)   
    DRY(  8,156)   DRY(  8,157)   DRY(  8,158)   DRY(  8,159)   DRY(  8,160)   
    DRY(  8,161)   DRY(  8,162)   DRY(  8,163)   DRY(  8,164)   DRY(  8,165)   
    DRY(  8,166)   DRY(  8,167)   DRY(  8,168)   DRY(  8,169)   DRY(  8,170)   
    DRY(  8,171)   DRY(  8,172)   DRY(  8,173)   DRY(  8,174)   DRY(  8,175)   
    DRY(  8,176)   DRY(  8,177)   DRY(  8,178)   DRY(  8,179)   DRY(  8,180)   
    DRY(  8,181)   DRY(  8,182)   DRY(  8,183)   DRY(  8,184)   DRY(  8,185)   
    DRY(  8,186)   DRY(  8,187)   DRY(  8,188)   DRY(  8,189)   DRY(  8,190)   
    DRY(  8,191)   DRY(  8,192)   DRY(  8,193)   DRY(  8,194)   DRY(  8,195)   
    DRY(  8,196)   DRY(  8,197)   DRY(  8,198)   DRY(  8,199)   DRY(  8,200)   
    DRY(  8,201)   DRY(  8,202)   DRY(  8,203)   DRY(  8,204)   DRY(  8,205)   
    DRY(  8,206)   DRY(  8,207)   DRY(  8,208)   DRY(  8,209)   DRY(  8,210)   
    DRY(  8,211)   DRY(  8,212)   DRY(  8,213)   DRY(  8,214)   DRY(  8,215)   
    DRY(  8,216)   DRY(  8,217)   DRY(  8,218)   DRY(  8,219)   DRY(  8,220)   
    DRY(  9,  1)   DRY(  9,  2)   DRY(  9,  3)   DRY(  9,  4)   DRY(  9,  5)   
    DRY(  9,  6)   DRY(  9,  7)   DRY(  9,  8)   DRY(  9,  9)   DRY(  9, 10)   
    DRY(  9, 11)   DRY(  9, 12)   DRY(  9, 13)   DRY(  9, 14)   DRY(  9, 15)   
    DRY(  9, 16)   DRY(  9, 17)   DRY(  9, 18)   DRY(  9, 19)   DRY(  9, 20)   
    DRY(  9, 21)   DRY(  9, 22)   DRY(  9, 23)   DRY(  9, 24)   DRY(  9, 25)   
    DRY(  9, 26)   DRY(  9, 27)   DRY(  9, 28)   DRY(  9, 29)   DRY(  9, 30)   
    DRY(  9, 31)   DRY(  9, 32)   DRY(  9, 33)   DRY(  9, 34)   DRY(  9, 35)   
    DRY(  9, 36)   DRY(  9, 37)   DRY(  9, 38)   DRY(  9, 39)   DRY(  9, 40)   
    DRY(  9, 41)   DRY(  9, 42)   DRY(  9, 43)   DRY(  9, 44)   DRY(  9, 45)   
    DRY(  9, 46)   DRY(  9, 47)   DRY(  9, 48)   DRY(  9, 49)   DRY(  9, 50)   
    DRY(  9, 51)   DRY(  9, 52)   DRY(  9, 53)   DRY(  9, 54)   DRY(  9, 55)   
    DRY(  9, 56)   DRY(  9, 57)   DRY(  9, 58)   DRY(  9, 59)   DRY(  9, 60)   
    DRY(  9, 61)   DRY(  9, 62)   DRY(  9, 63)   DRY(  9, 64)   DRY(  9, 65)   
    DRY(  9, 66)   DRY(  9, 67)   DRY(  9, 68)   DRY(  9, 69)   DRY(  9, 70)   
    DRY(  9, 71)   DRY(  9, 72)   DRY(  9, 73)   DRY(  9, 74)   DRY(  9, 75)   
    DRY(  9, 76)   DRY(  9, 77)   DRY(  9, 78)   DRY(  9, 79)   DRY(  9, 80)   
    DRY(  9, 81)   DRY(  9, 82)   DRY(  9, 83)   DRY(  9, 84)   DRY(  9, 85)   
    DRY(  9, 86)   DRY(  9, 87)   DRY(  9, 88)   DRY(  9, 89)   DRY(  9, 90)   
    DRY(  9, 91)   DRY(  9, 92)   DRY(  9, 93)   DRY(  9, 94)   DRY(  9, 95)   
    DRY(  9, 96)   DRY(  9, 97)   DRY(  9, 98)   DRY(  9, 99)   DRY(  9,100)   
    DRY(  9,101)   DRY(  9,102)   DRY(  9,103)   DRY(  9,104)   DRY(  9,105)   
    DRY(  9,106)   DRY(  9,107)   DRY(  9,108)   DRY(  9,109)   DRY(  9,110)   
    DRY(  9,111)   DRY(  9,112)   DRY(  9,113)   DRY(  9,114)   DRY(  9,115)   
    DRY(  9,116)   DRY(  9,117)   DRY(  9,118)   DRY(  9,119)   DRY(  9,120)   
    DRY(  9,121)   DRY(  9,122)   DRY(  9,123)   DRY(  9,124)   DRY(  9,125)   
    DRY(  9,126)   DRY(  9,127)   DRY(  9,128)   DRY(  9,129)   DRY(  9,130)   
    DRY(  9,131)   DRY(  9,132)   DRY(  9,133)   DRY(  9,134)   DRY(  9,135)   
    DRY(  9,136)   DRY(  9,137)   DRY(  9,138)   DRY(  9,139)   DRY(  9,140)   
    DRY(  9,141)   DRY(  9,142)   DRY(  9,143)   DRY(  9,144)   DRY(  9,145)   
    DRY(  9,146)   DRY(  9,147)   DRY(  9,148)   DRY(  9,149)   DRY(  9,150)   
    DRY(  9,151)   DRY(  9,152)   DRY(  9,153)   DRY(  9,154)   DRY(  9,155)   
    DRY(  9,156)   DRY(  9,157)   DRY(  9,158)   DRY(  9,159)   DRY(  9,160)   
    DRY(  9,161)   DRY(  9,162)   DRY(  9,163)   DRY(  9,164)   DRY(  9,165)   
    DRY(  9,166)   DRY(  9,167)   DRY(  9,168)   DRY(  9,169)   DRY(  9,170)   
    DRY(  9,171)   DRY(  9,172)   DRY(  9,173)   DRY(  9,174)   DRY(  9,175)   
    DRY(  9,176)   DRY(  9,177)   DRY(  9,178)   DRY(  9,179)   DRY(  9,180)   
    DRY(  9,181)   DRY(  9,182)   DRY(  9,183)   DRY(  9,184)   DRY(  9,185)   
    DRY(  9,186)   DRY(  9,187)   DRY(  9,188)   DRY(  9,189)   DRY(  9,190)   
    DRY(  9,191)   DRY(  9,192)   DRY(  9,193)   DRY(  9,194)   DRY(  9,195)   
    DRY(  9,196)   DRY(  9,197)   DRY(  9,198)   DRY(  9,199)   DRY(  9,200)   
    DRY(  9,201)   DRY(  9,202)   DRY(  9,203)   DRY(  9,204)   DRY(  9,205)   
    DRY(  9,206)   DRY(  9,207)   DRY(  9,208)   DRY(  9,209)   DRY(  9,210)   
    DRY(  9,211)   DRY(  9,212)   DRY(  9,213)   DRY(  9,214)   DRY(  9,215)   
    DRY(  9,216)   DRY(  9,217)   DRY(  9,218)   DRY(  9,219)   DRY(  9,220)   
    DRY( 10,  1)   DRY( 10,  2)   DRY( 10,  3)   DRY( 10,  4)   DRY( 10,  5)   
    DRY( 10,  6)   DRY( 10,  7)   DRY( 10,  8)   DRY( 10,  9)   DRY( 10, 10)   
    DRY( 10, 11)   DRY( 10, 12)   DRY( 10, 13)   DRY( 10, 14)   DRY( 10, 15)   
    DRY( 10, 16)   DRY( 10, 17)   DRY( 10, 18)   DRY( 10, 19)   DRY( 10, 20)   
    DRY( 10, 21)   DRY( 10, 22)   DRY( 10, 23)   DRY( 10, 24)   DRY( 10, 25)   
    DRY( 10, 26)   DRY( 10, 27)   DRY( 10, 28)   DRY( 10, 29)   DRY( 10, 30)   
    DRY( 10, 31)   DRY( 10, 32)   DRY( 10, 33)   DRY( 10, 34)   DRY( 10, 35)   
    DRY( 10, 36)   DRY( 10, 37)   DRY( 10, 38)   DRY( 10, 39)   DRY( 10, 40)   
    DRY( 10, 41)   DRY( 10, 42)   DRY( 10, 43)   DRY( 10, 44)   DRY( 10, 45)   
    DRY( 10, 46)   DRY( 10, 47)   DRY( 10, 48)   DRY( 10, 49)   DRY( 10, 50)   
    DRY( 10, 51)   DRY( 10, 52)   DRY( 10, 53)   DRY( 10, 54)   DRY( 10, 55)   
    DRY( 10, 56)   DRY( 10, 57)   DRY( 10, 58)   DRY( 10, 59)   DRY( 10, 60)   
    DRY( 10, 61)   DRY( 10, 62)   DRY( 10, 63)   DRY( 10, 64)   DRY( 10, 65)   
    DRY( 10, 66)   DRY( 10, 67)   DRY( 10, 68)   DRY( 10, 69)   DRY( 10, 70)   
    DRY( 10, 71)   DRY( 10, 72)   DRY( 10, 73)   DRY( 10, 74)   DRY( 10, 75)   
    DRY( 10, 76)   DRY( 10, 77)   DRY( 10, 78)   DRY( 10, 79)   DRY( 10, 80)   
    DRY( 10, 81)   DRY( 10, 82)   DRY( 10, 83)   DRY( 10, 84)   DRY( 10, 85)   
    DRY( 10, 86)   DRY( 10, 87)   DRY( 10, 88)   DRY( 10, 89)   DRY( 10, 90)   
    DRY( 10, 91)   DRY( 10, 92)   DRY( 10, 93)   DRY( 10, 94)   DRY( 10, 95)   
    DRY( 10, 96)   DRY( 10, 97)   DRY( 10, 98)   DRY( 10, 99)   DRY( 10,100)   
    DRY( 10,101)   DRY( 10,102)   DRY( 10,103)   DRY( 10,104)   DRY( 10,105)   
    DRY( 10,106)   DRY( 10,107)   DRY( 10,108)   DRY( 10,109)   DRY( 10,110)   
    DRY( 10,111)   DRY( 10,112)   DRY( 10,113)   DRY( 10,114)   DRY( 10,115)   
    DRY( 10,116)   DRY( 10,117)   DRY( 10,118)   DRY( 10,119)   DRY( 10,120)   
    DRY( 10,121)   DRY( 10,122)   DRY( 10,123)   DRY( 10,124)   DRY( 10,125)   
    DRY( 10,126)   DRY( 10,127)   DRY( 10,128)   DRY( 10,129)   DRY( 10,130)   
    DRY( 10,131)   DRY( 10,132)   DRY( 10,133)   DRY( 10,134)   DRY( 10,135)   
    DRY( 10,136)   DRY( 10,137)   DRY( 10,138)   DRY( 10,139)   DRY( 10,140)   
    DRY( 10,141)   DRY( 10,142)   DRY( 10,143)   DRY( 10,144)   DRY( 10,145)   
    DRY( 10,146)   DRY( 10,147)   DRY( 10,148)   DRY( 10,149)   DRY( 10,150)   
    DRY( 10,151)   DRY( 10,152)   DRY( 10,153)   DRY( 10,154)   DRY( 10,155)   
    DRY( 10,156)   DRY( 10,157)   DRY( 10,158)   DRY( 10,159)   DRY( 10,160)   
    DRY( 10,161)   DRY( 10,162)   DRY( 10,163)   DRY( 10,164)   DRY( 10,165)   
    DRY( 10,166)   DRY( 10,167)   DRY( 10,168)   DRY( 10,169)   DRY( 10,170)   
    DRY( 10,171)   DRY( 10,172)   DRY( 10,173)   DRY( 10,174)   DRY( 10,175)   
    DRY( 10,176)   DRY( 10,177)   DRY( 10,178)   DRY( 10,179)   DRY( 10,180)   
    DRY( 10,181)   DRY( 10,182)   DRY( 10,183)   DRY( 10,184)   DRY( 10,185)   
    DRY( 10,186)   DRY( 10,187)   DRY( 10,188)   DRY( 10,189)   DRY( 10,190)   
    DRY( 10,191)   DRY( 10,192)   DRY( 10,193)   DRY( 10,194)   DRY( 10,195)   
    DRY( 10,196)   DRY( 10,197)   DRY( 10,198)   DRY( 10,199)   DRY( 10,200)   
    DRY( 10,201)   DRY( 10,202)   DRY( 10,203)   DRY( 10,204)   DRY( 10,205)   
    DRY( 10,206)   DRY( 10,207)   DRY( 10,208)   DRY( 10,209)   DRY( 10,210)   
    DRY( 10,211)   DRY( 10,212)   DRY( 10,213)   DRY( 10,214)   DRY( 10,215)   
    DRY( 10,216)   DRY( 10,217)   DRY( 10,218)   DRY( 10,219)   DRY( 10,220)   
    DRY( 11,  1)   DRY( 11,  2)   DRY( 11,  3)   DRY( 11,  4)   DRY( 11,  5)   
    DRY( 11,  6)   DRY( 11,  7)   DRY( 11,  8)   DRY( 11,  9)   DRY( 11, 10)   
    DRY( 11, 11)   DRY( 11, 12)   DRY( 11, 13)   DRY( 11, 14)   DRY( 11, 15)   
    DRY( 11, 16)   DRY( 11, 17)   DRY( 11, 18)   DRY( 11, 19)   DRY( 11, 20)   
    DRY( 11, 21)   DRY( 11, 22)   DRY( 11, 23)   DRY( 11, 24)   DRY( 11, 25)   
    DRY( 11, 26)   DRY( 11, 27)   DRY( 11, 28)   DRY( 11, 29)   DRY( 11, 30)   
    DRY( 11, 31)   DRY( 11, 32)   DRY( 11, 33)   DRY( 11, 34)   DRY( 11, 35)   
    DRY( 11, 36)   DRY( 11, 37)   DRY( 11, 38)   DRY( 11, 39)   DRY( 11, 40)   
    DRY( 11, 41)   DRY( 11, 42)   DRY( 11, 43)   DRY( 11, 44)   DRY( 11, 45)   
    DRY( 11, 46)   DRY( 11, 47)   DRY( 11, 48)   DRY( 11, 49)   DRY( 11, 50)   
    DRY( 11, 51)   DRY( 11, 52)   DRY( 11, 53)   DRY( 11, 54)   DRY( 11, 55)   
    DRY( 11, 56)   DRY( 11, 57)   DRY( 11, 58)   DRY( 11, 59)   DRY( 11, 60)   
    DRY( 11, 61)   DRY( 11, 62)   DRY( 11, 63)   DRY( 11, 64)   DRY( 11, 65)   
    DRY( 11, 66)   DRY( 11, 67)   DRY( 11, 68)   DRY( 11, 69)   DRY( 11, 70)   
    DRY( 11, 71)   DRY( 11, 72)   DRY( 11, 73)   DRY( 11, 74)   DRY( 11, 75)   
    DRY( 11, 76)   DRY( 11, 77)   DRY( 11, 78)   DRY( 11, 79)   DRY( 11, 80)   
    DRY( 11, 81)   DRY( 11, 82)   DRY( 11, 83)   DRY( 11, 84)   DRY( 11, 85)   
    DRY( 11, 86)   DRY( 11, 87)   DRY( 11, 88)   DRY( 11, 89)   DRY( 11, 90)   
    DRY( 11, 91)   DRY( 11, 92)   DRY( 11, 93)   DRY( 11, 94)   DRY( 11, 95)   
    DRY( 11, 96)   DRY( 11, 97)   DRY( 11, 98)   DRY( 11, 99)   DRY( 11,100)   
    DRY( 11,101)   DRY( 11,102)   DRY( 11,103)   DRY( 11,104)   DRY( 11,105)   
    DRY( 11,106)   DRY( 11,107)   DRY( 11,108)   DRY( 11,109)   DRY( 11,110)   
    DRY( 11,111)   DRY( 11,112)   DRY( 11,113)   DRY( 11,114)   DRY( 11,115)   
    DRY( 11,116)   DRY( 11,117)   DRY( 11,118)   DRY( 11,119)   DRY( 11,120)   
    DRY( 11,121)   DRY( 11,122)   DRY( 11,123)   DRY( 11,124)   DRY( 11,125)   
    DRY( 11,126)   DRY( 11,127)   DRY( 11,128)   DRY( 11,129)   DRY( 11,130)   
    DRY( 11,131)   DRY( 11,132)   DRY( 11,133)   DRY( 11,134)   DRY( 11,135)   
    DRY( 11,136)   DRY( 11,137)   DRY( 11,138)   DRY( 11,139)   DRY( 11,140)   
    DRY( 11,141)   DRY( 11,142)   DRY( 11,143)   DRY( 11,144)   DRY( 11,145)   
    DRY( 11,146)   DRY( 11,147)   DRY( 11,148)   DRY( 11,149)   DRY( 11,150)   
    DRY( 11,151)   DRY( 11,152)   DRY( 11,153)   DRY( 11,154)   DRY( 11,155)   
    DRY( 11,156)   DRY( 11,157)   DRY( 11,158)   DRY( 11,159)   DRY( 11,160)   
    DRY( 11,161)   DRY( 11,162)   DRY( 11,163)   DRY( 11,164)   DRY( 11,165)   
    DRY( 11,166)   DRY( 11,167)   DRY( 11,168)   DRY( 11,169)   DRY( 11,170)   
    DRY( 11,171)   DRY( 11,172)   DRY( 11,173)   DRY( 11,174)   DRY( 11,175)   
    DRY( 11,176)   DRY( 11,177)   DRY( 11,178)   DRY( 11,179)   DRY( 11,180)   
    DRY( 11,181)   DRY( 11,182)   DRY( 11,183)   DRY( 11,184)   DRY( 11,185)   
    DRY( 11,186)   DRY( 11,187)   DRY( 11,188)   DRY( 11,189)   DRY( 11,190)   
    DRY( 11,191)   DRY( 11,192)   DRY( 11,193)   DRY( 11,194)   DRY( 11,195)   
    DRY( 11,196)   DRY( 11,197)   DRY( 11,198)   DRY( 11,199)   DRY( 11,200)   
    DRY( 11,201)   DRY( 11,202)   DRY( 11,203)   DRY( 11,204)   DRY( 11,205)   
    DRY( 11,206)   DRY( 11,207)   DRY( 11,208)   DRY( 11,209)   DRY( 11,210)   
    DRY( 11,211)   DRY( 11,212)   DRY( 11,213)   DRY( 11,214)   DRY( 11,215)   
    DRY( 11,216)   DRY( 11,217)   DRY( 11,218)   DRY( 11,219)   DRY( 11,220)   
    DRY( 12,  1)   DRY( 12,  2)   DRY( 12,  3)   DRY( 12,  4)   DRY( 12,  5)   
    DRY( 12,  6)   DRY( 12,  7)   DRY( 12,  8)   DRY( 12,  9)   DRY( 12, 10)   
    DRY( 12, 11)   DRY( 12, 12)   DRY( 12, 13)   DRY( 12, 14)   DRY( 12, 15)   
    DRY( 12, 16)   DRY( 12, 17)   DRY( 12, 18)   DRY( 12, 19)   DRY( 12, 20)   
    DRY( 12, 21)   DRY( 12, 22)   DRY( 12, 23)   DRY( 12, 24)   DRY( 12, 25)   
    DRY( 12, 26)   DRY( 12, 27)   DRY( 12, 28)   DRY( 12, 29)   DRY( 12, 30)   
    DRY( 12, 31)   DRY( 12, 32)   DRY( 12, 33)   DRY( 12, 34)   DRY( 12, 35)   
    DRY( 12, 36)   DRY( 12, 37)   DRY( 12, 38)   DRY( 12, 39)   DRY( 12, 40)   
    DRY( 12, 41)   DRY( 12, 42)   DRY( 12, 43)   DRY( 12, 44)   DRY( 12, 45)   
    DRY( 12, 46)   DRY( 12, 47)   DRY( 12, 48)   DRY( 12, 49)   DRY( 12, 50)   
    DRY( 12, 51)   DRY( 12, 52)   DRY( 12, 53)   DRY( 12, 54)   DRY( 12, 55)   
    DRY( 12, 56)   DRY( 12, 57)   DRY( 12, 58)   DRY( 12, 59)   DRY( 12, 60)   
    DRY( 12, 61)   DRY( 12, 62)   DRY( 12, 63)   DRY( 12, 64)   DRY( 12, 65)   
    DRY( 12, 66)   DRY( 12, 67)   DRY( 12, 68)   DRY( 12, 69)   DRY( 12, 70)   
    DRY( 12, 71)   DRY( 12, 72)   DRY( 12, 73)   DRY( 12, 74)   DRY( 12, 75)   
    DRY( 12, 76)   DRY( 12, 77)   DRY( 12, 78)   DRY( 12, 79)   DRY( 12, 80)   
    DRY( 12, 81)   DRY( 12, 82)   DRY( 12, 83)   DRY( 12, 84)   DRY( 12, 85)   
    DRY( 12, 86)   DRY( 12, 87)   DRY( 12, 88)   DRY( 12, 89)   DRY( 12, 90)   
    DRY( 12, 91)   DRY( 12, 92)   DRY( 12, 93)   DRY( 12, 94)   DRY( 12, 95)   
    DRY( 12, 96)   DRY( 12, 97)   DRY( 12, 98)   DRY( 12, 99)   DRY( 12,100)   
    DRY( 12,101)   DRY( 12,102)   DRY( 12,103)   DRY( 12,104)   DRY( 12,105)   
    DRY( 12,106)   DRY( 12,107)   DRY( 12,108)   DRY( 12,109)   DRY( 12,110)   
    DRY( 12,111)   DRY( 12,112)   DRY( 12,113)   DRY( 12,114)   DRY( 12,115)   
    DRY( 12,116)   DRY( 12,117)   DRY( 12,118)   DRY( 12,119)   DRY( 12,120)   
    DRY( 12,121)   DRY( 12,122)   DRY( 12,123)   DRY( 12,124)   DRY( 12,125)   
    DRY( 12,126)   DRY( 12,127)   DRY( 12,128)   DRY( 12,129)   DRY( 12,130)   
    DRY( 12,131)   DRY( 12,132)   DRY( 12,133)   DRY( 12,134)   DRY( 12,135)   
    DRY( 12,136)   DRY( 12,137)   DRY( 12,138)   DRY( 12,139)   DRY( 12,140)   
    DRY( 12,141)   DRY( 12,142)   DRY( 12,143)   DRY( 12,144)   DRY( 12,145)   
    DRY( 12,146)   DRY( 12,147)   DRY( 12,148)   DRY( 12,149)   DRY( 12,150)   
    DRY( 12,151)   DRY( 12,152)   DRY( 12,153)   DRY( 12,154)   DRY( 12,155)   
    DRY( 12,156)   DRY( 12,157)   DRY( 12,158)   DRY( 12,159)   DRY( 12,160)   
    DRY( 12,161)   DRY( 12,162)   DRY( 12,163)   DRY( 12,164)   DRY( 12,165)   
    DRY( 12,166)   DRY( 12,167)   DRY( 12,168)   DRY( 12,169)   DRY( 12,170)   
    DRY( 12,171)   DRY( 12,172)   DRY( 12,173)   DRY( 12,174)   DRY( 12,175)   
    DRY( 12,176)   DRY( 12,177)   DRY( 12,178)   DRY( 12,179)   DRY( 12,180)   
    DRY( 12,181)   DRY( 12,182)   DRY( 12,183)   DRY( 12,184)   DRY( 12,185)   
    DRY( 12,186)   DRY( 12,187)   DRY( 12,188)   DRY( 12,189)   DRY( 12,190)   
    DRY( 12,191)   DRY( 12,192)   DRY( 12,193)   DRY( 12,194)   DRY( 12,195)   
    DRY( 12,196)   DRY( 12,197)   DRY( 12,198)   DRY( 12,199)   DRY( 12,200)   
    DRY( 12,201)   DRY( 12,202)   DRY( 12,203)   DRY( 12,204)   DRY( 12,205)   
    DRY( 12,206)   DRY( 12,207)   DRY( 12,208)   DRY( 12,209)   DRY( 12,210)   
    DRY( 12,211)   DRY( 12,212)   DRY( 12,213)   DRY( 12,214)   DRY( 12,215)   
    DRY( 12,216)   DRY( 12,217)   DRY( 12,218)   DRY( 12,219)   DRY( 12,220)   
    DRY( 13,  1)   DRY( 13,  2)   DRY( 13,  3)   DRY( 13,  4)   DRY( 13,  5)   
    DRY( 13,  6)   DRY( 13,  7)   DRY( 13,  8)   DRY( 13,  9)   DRY( 13, 10)   
    DRY( 13, 11)   DRY( 13, 12)   DRY( 13, 13)   DRY( 13, 14)   DRY( 13, 15)   
    DRY( 13, 16)   DRY( 13, 17)   DRY( 13, 18)   DRY( 13, 19)   DRY( 13, 20)   
    DRY( 13, 21)   DRY( 13, 22)   DRY( 13, 23)   DRY( 13, 24)   DRY( 13, 25)   
    DRY( 13, 26)   DRY( 13, 27)   DRY( 13, 28)   DRY( 13, 29)   DRY( 13, 30)   
    DRY( 13, 31)   DRY( 13, 32)   DRY( 13, 33)   DRY( 13, 34)   DRY( 13, 35)   
    DRY( 13, 36)   DRY( 13, 37)   DRY( 13, 38)   DRY( 13, 39)   DRY( 13, 40)   
    DRY( 13, 41)   DRY( 13, 42)   DRY( 13, 43)   DRY( 13, 44)   DRY( 13, 45)   
    DRY( 13, 46)   DRY( 13, 47)   DRY( 13, 48)   DRY( 13, 49)   DRY( 13, 50)   
    DRY( 13, 51)   DRY( 13, 52)   DRY( 13, 53)   DRY( 13, 54)   DRY( 13, 55)   
    DRY( 13, 56)   DRY( 13, 57)   DRY( 13, 58)   DRY( 13, 59)   DRY( 13, 60)   
    DRY( 13, 61)   DRY( 13, 62)   DRY( 13, 63)   DRY( 13, 64)   DRY( 13, 65)   
    DRY( 13, 66)   DRY( 13, 67)   DRY( 13, 68)   DRY( 13, 69)   DRY( 13, 70)   
    DRY( 13, 71)   DRY( 13, 72)   DRY( 13, 73)   DRY( 13, 74)   DRY( 13, 75)   
    DRY( 13, 76)   DRY( 13, 77)   DRY( 13, 78)   DRY( 13, 79)   DRY( 13, 80)   
    DRY( 13, 81)   DRY( 13, 82)   DRY( 13, 83)   DRY( 13, 84)   DRY( 13, 85)   
    DRY( 13, 86)   DRY( 13, 87)   DRY( 13, 88)   DRY( 13, 89)   DRY( 13, 90)   
    DRY( 13, 91)   DRY( 13, 92)   DRY( 13, 93)   DRY( 13, 94)   DRY( 13, 95)   
    DRY( 13, 96)   DRY( 13, 97)   DRY( 13, 98)   DRY( 13, 99)   DRY( 13,100)   
    DRY( 13,101)   DRY( 13,102)   DRY( 13,103)   DRY( 13,104)   DRY( 13,105)   
    DRY( 13,106)   DRY( 13,107)   DRY( 13,108)   DRY( 13,109)   DRY( 13,110)   
    DRY( 13,111)   DRY( 13,112)   DRY( 13,113)   DRY( 13,114)   DRY( 13,115)   
    DRY( 13,116)   DRY( 13,117)   DRY( 13,118)   DRY( 13,119)   DRY( 13,120)   
    DRY( 13,121)   DRY( 13,122)   DRY( 13,123)   DRY( 13,124)   DRY( 13,125)   
    DRY( 13,126)   DRY( 13,127)   DRY( 13,128)   DRY( 13,129)   DRY( 13,130)   
    DRY( 13,131)   DRY( 13,132)   DRY( 13,133)   DRY( 13,134)   DRY( 13,135)   
    DRY( 13,136)   DRY( 13,137)   DRY( 13,138)   DRY( 13,139)   DRY( 13,140)   
    DRY( 13,141)   DRY( 13,142)   DRY( 13,143)   DRY( 13,144)   DRY( 13,145)   
    DRY( 13,146)   DRY( 13,147)   DRY( 13,148)   DRY( 13,149)   DRY( 13,150)   
    DRY( 13,151)   DRY( 13,152)   DRY( 13,153)   DRY( 13,154)   DRY( 13,155)   
    DRY( 13,156)   DRY( 13,157)   DRY( 13,158)   DRY( 13,159)   DRY( 13,160)   
    DRY( 13,161)   DRY( 13,162)   DRY( 13,163)   DRY( 13,164)   DRY( 13,165)   
    DRY( 13,166)   DRY( 13,167)   DRY( 13,168)   DRY( 13,169)   DRY( 13,170)   
    DRY( 13,171)   DRY( 13,172)   DRY( 13,173)   DRY( 13,174)   DRY( 13,175)   
    DRY( 13,176)   DRY( 13,177)   DRY( 13,178)   DRY( 13,179)   DRY( 13,180)   
    DRY( 13,181)   DRY( 13,182)   DRY( 13,183)   DRY( 13,184)   DRY( 13,185)   
    DRY( 13,186)   DRY( 13,187)   DRY( 13,188)   DRY( 13,189)   DRY( 13,190)   
    DRY( 13,191)   DRY( 13,192)   DRY( 13,193)   DRY( 13,194)   DRY( 13,195)   
    DRY( 13,196)   DRY( 13,197)   DRY( 13,198)   DRY( 13,199)   DRY( 13,200)   
    DRY( 13,201)   DRY( 13,202)   DRY( 13,203)   DRY( 13,204)   DRY( 13,205)   
    DRY( 13,206)   DRY( 13,207)   DRY( 13,208)   DRY( 13,209)   DRY( 13,210)   
    DRY( 13,211)   DRY( 13,212)   DRY( 13,213)   DRY( 13,214)   DRY( 13,215)   
    DRY( 13,216)   DRY( 13,217)   DRY( 13,218)   DRY( 13,219)   DRY( 13,220)   
    DRY( 14,  1)   DRY( 14,  2)   DRY( 14,  3)   DRY( 14,  4)   DRY( 14,  5)   
    DRY( 14,  6)   DRY( 14,  7)   DRY( 14,  8)   DRY( 14,  9)   DRY( 14, 10)   
    DRY( 14, 11)   DRY( 14, 12)   DRY( 14, 13)   DRY( 14, 14)   DRY( 14, 15)   
    DRY( 14, 16)   DRY( 14, 17)   DRY( 14, 18)   DRY( 14, 19)   DRY( 14, 20)   
    DRY( 14, 21)   DRY( 14, 22)   DRY( 14, 23)   DRY( 14, 24)   DRY( 14, 25)   
    DRY( 14, 26)   DRY( 14, 27)   DRY( 14, 28)   DRY( 14, 29)   DRY( 14, 30)   
    DRY( 14, 31)   DRY( 14, 32)   DRY( 14, 33)   DRY( 14, 34)   DRY( 14, 35)   
    DRY( 14, 36)   DRY( 14, 37)   DRY( 14, 38)   DRY( 14, 39)   DRY( 14, 40)   
    DRY( 14, 41)   DRY( 14, 42)   DRY( 14, 43)   DRY( 14, 44)   DRY( 14, 45)   
    DRY( 14, 46)   DRY( 14, 47)   DRY( 14, 48)   DRY( 14, 49)   DRY( 14, 50)   
    DRY( 14, 51)   DRY( 14, 52)   DRY( 14, 53)   DRY( 14, 54)   DRY( 14, 55)   
    DRY( 14, 56)   DRY( 14, 57)   DRY( 14, 58)   DRY( 14, 59)   DRY( 14, 60)   
    DRY( 14, 61)   DRY( 14, 62)   DRY( 14, 63)   DRY( 14, 64)   DRY( 14, 65)   
    DRY( 14, 66)   DRY( 14, 67)   DRY( 14, 68)   DRY( 14, 69)   DRY( 14, 70)   
    DRY( 14, 71)   DRY( 14, 72)   DRY( 14, 73)   DRY( 14, 74)   DRY( 14, 75)   
    DRY( 14, 76)   DRY( 14, 77)   DRY( 14, 78)   DRY( 14, 79)   DRY( 14, 80)   
    DRY( 14, 81)   DRY( 14, 82)   DRY( 14, 83)   DRY( 14, 84)   DRY( 14, 85)   
    DRY( 14, 86)   DRY( 14, 87)   DRY( 14, 88)   DRY( 14, 89)   DRY( 14, 90)   
    DRY( 14, 91)   DRY( 14, 92)   DRY( 14, 93)   DRY( 14, 94)   DRY( 14, 95)   
    DRY( 14, 96)   DRY( 14, 97)   DRY( 14, 98)   DRY( 14, 99)   DRY( 14,100)   
    DRY( 14,101)   DRY( 14,102)   DRY( 14,103)   DRY( 14,104)   DRY( 14,105)   
    DRY( 14,106)   DRY( 14,107)   DRY( 14,108)   DRY( 14,109)   DRY( 14,110)   
    DRY( 14,111)   DRY( 14,112)   DRY( 14,113)   DRY( 14,114)   DRY( 14,115)   
    DRY( 14,116)   DRY( 14,117)   DRY( 14,118)   DRY( 14,119)   DRY( 14,120)   
    DRY( 14,121)   DRY( 14,122)   DRY( 14,123)   DRY( 14,124)   DRY( 14,125)   
    DRY( 14,126)   DRY( 14,127)   DRY( 14,128)   DRY( 14,129)   DRY( 14,130)   
    DRY( 14,131)   DRY( 14,132)   DRY( 14,133)   DRY( 14,134)   DRY( 14,135)   
    DRY( 14,136)   DRY( 14,137)   DRY( 14,138)   DRY( 14,139)   DRY( 14,140)   
    DRY( 14,141)   DRY( 14,142)   DRY( 14,143)   DRY( 14,144)   DRY( 14,145)   
    DRY( 14,146)   DRY( 14,147)   DRY( 14,148)   DRY( 14,149)   DRY( 14,150)   
    DRY( 14,151)   DRY( 14,152)   DRY( 14,153)   DRY( 14,154)   DRY( 14,155)   
    DRY( 14,156)   DRY( 14,157)   DRY( 14,158)   DRY( 14,159)   DRY( 14,160)   
    DRY( 14,161)   DRY( 14,162)   DRY( 14,163)   DRY( 14,164)   DRY( 14,165)   
    DRY( 14,166)   DRY( 14,167)   DRY( 14,168)   DRY( 14,169)   DRY( 14,170)   
    DRY( 14,171)   DRY( 14,172)   DRY( 14,173)   DRY( 14,174)   DRY( 14,175)   
    DRY( 14,176)   DRY( 14,177)   DRY( 14,178)   DRY( 14,179)   DRY( 14,180)   
    DRY( 14,181)   DRY( 14,182)   DRY( 14,183)   DRY( 14,184)   DRY( 14,185)   
    DRY( 14,186)   DRY( 14,187)   DRY( 14,188)   DRY( 14,189)   DRY( 14,190)   
    DRY( 14,191)   DRY( 14,192)   DRY( 14,193)   DRY( 14,194)   DRY( 14,195)   
    DRY( 14,196)   DRY( 14,197)   DRY( 14,198)   DRY( 14,199)   DRY( 14,200)   
    DRY( 14,201)   DRY( 14,202)   DRY( 14,203)   DRY( 14,204)   DRY( 14,205)   
    DRY( 14,206)   DRY( 14,207)   DRY( 14,208)   DRY( 14,209)   DRY( 14,210)   
    DRY( 14,211)   DRY( 14,212)   DRY( 14,213)   DRY( 14,214)   DRY( 14,215)   
    DRY( 14,216)   DRY( 14,217)   DRY( 14,218)   DRY( 14,219)   DRY( 14,220)   
    DRY( 15,  1)   DRY( 15,  2)   DRY( 15,  3)   DRY( 15,  4)   DRY( 15,  5)   
    DRY( 15,  6)   DRY( 15,  7)   DRY( 15,  8)   DRY( 15,  9)   DRY( 15, 10)   
    DRY( 15, 11)   DRY( 15, 12)   DRY( 15, 13)   DRY( 15, 14)   DRY( 15, 15)   
    DRY( 15, 16)   DRY( 15, 17)   DRY( 15, 18)   DRY( 15, 19)   DRY( 15, 20)   
    DRY( 15, 21)   DRY( 15, 22)   DRY( 15, 23)   DRY( 15, 24)   DRY( 15, 25)   
    DRY( 15, 26)   DRY( 15, 27)   DRY( 15, 28)   DRY( 15, 29)   DRY( 15, 30)   
    DRY( 15, 31)   DRY( 15, 32)   DRY( 15, 33)   DRY( 15, 34)   DRY( 15, 35)   
    DRY( 15, 36)   DRY( 15, 37)   DRY( 15, 38)   DRY( 15, 39)   DRY( 15, 40)   
    DRY( 15, 41)   DRY( 15, 42)   DRY( 15, 43)   DRY( 15, 44)   DRY( 15, 45)   
    DRY( 15, 46)   DRY( 15, 47)   DRY( 15, 48)   DRY( 15, 49)   DRY( 15, 50)   
    DRY( 15, 51)   DRY( 15, 52)   DRY( 15, 53)   DRY( 15, 54)   DRY( 15, 55)   
    DRY( 15, 56)   DRY( 15, 57)   DRY( 15, 58)   DRY( 15, 59)   DRY( 15, 60)   
    DRY( 15, 61)   DRY( 15, 62)   DRY( 15, 63)   DRY( 15, 64)   DRY( 15, 65)   
    DRY( 15, 66)   DRY( 15, 67)   DRY( 15, 68)   DRY( 15, 69)   DRY( 15, 70)   
    DRY( 15, 71)   DRY( 15, 72)   DRY( 15, 73)   DRY( 15, 74)   DRY( 15, 75)   
    DRY( 15, 76)   DRY( 15, 77)   DRY( 15, 78)   DRY( 15, 79)   DRY( 15, 80)   
    DRY( 15, 81)   DRY( 15, 82)   DRY( 15, 83)   DRY( 15, 84)   DRY( 15, 85)   
    DRY( 15, 86)   DRY( 15, 87)   DRY( 15, 88)   DRY( 15, 89)   DRY( 15, 90)   
    DRY( 15, 91)   DRY( 15, 92)   DRY( 15, 93)   DRY( 15, 94)   DRY( 15, 95)   
    DRY( 15, 96)   DRY( 15, 97)   DRY( 15, 98)   DRY( 15, 99)   DRY( 15,100)   
    DRY( 15,101)   DRY( 15,102)   DRY( 15,103)   DRY( 15,104)   DRY( 15,105)   
    DRY( 15,106)   DRY( 15,107)   DRY( 15,108)   DRY( 15,109)   DRY( 15,110)   
    DRY( 15,111)   DRY( 15,112)   DRY( 15,113)   DRY( 15,114)   DRY( 15,115)   
[...]
    DRY( 68,124)   DRY( 68,125)   DRY( 68,126)   DRY( 68,127)   DRY( 68,128)   
    DRY( 68,129)   DRY( 68,130)   DRY( 68,131)   DRY( 68,132)   DRY( 68,133)   
    DRY( 68,134)   DRY( 68,135)   DRY( 68,136)   DRY( 68,137)   DRY( 68,138)   
    DRY( 68,139)   DRY( 68,140)   DRY( 68,141)   DRY( 68,142)   DRY( 68,143)   
    DRY( 68,144)   DRY( 68,145)   DRY( 68,146)   DRY( 68,147)   DRY( 68,148)   
    DRY( 68,149)   DRY( 68,150)   DRY( 68,151)   DRY( 68,152)   DRY( 68,153)   
    DRY( 68,154)   DRY( 68,155)   DRY( 68,156)   DRY( 68,157)   DRY( 68,158)   
    DRY( 68,159)   DRY( 68,160)   DRY( 68,161)   DRY( 68,162)   DRY( 68,163)   
    DRY( 68,164)   DRY( 68,165)   DRY( 68,166)   DRY( 68,167)   DRY( 68,168)   
    DRY( 68,169)   DRY( 68,170)   DRY( 68,171)   DRY( 68,172)   DRY( 68,173)   
    DRY( 68,174)   DRY( 68,175)   DRY( 68,176)   DRY( 68,177)   DRY( 68,178)   
    DRY( 68,179)   DRY( 68,180)   DRY( 68,181)   DRY( 68,182)   DRY( 68,183)   
    DRY( 68,184)   DRY( 68,185)   DRY( 68,186)   DRY( 68,187)   DRY( 68,188)   
    DRY( 68,189)   DRY( 68,190)   DRY( 68,191)   DRY( 68,192)   DRY( 68,193)   
    DRY( 68,194)   DRY( 68,195)   DRY( 68,196)   DRY( 68,197)   DRY( 68,198)   
    DRY( 68,199)   DRY( 68,200)   DRY( 68,201)   DRY( 68,202)   DRY( 68,203)   
    DRY( 69,  1)   DRY( 69, 16)   DRY( 69, 32)   DRY( 69, 33)   DRY( 69, 34)   
    DRY( 69, 35)   DRY( 69, 36)   DRY( 69, 37)   DRY( 69, 38)   DRY( 69, 39)   
    DRY( 69, 40)   DRY( 69, 41)   DRY( 69, 42)   DRY( 69, 43)   DRY( 69, 44)   
    DRY( 69, 45)   DRY( 69, 46)   DRY( 69, 47)   DRY( 69, 48)   DRY( 69, 49)   
    DRY( 69, 50)   DRY( 69, 51)   DRY( 69, 52)   DRY( 69, 53)   DRY( 69, 54)   
    DRY( 69, 55)   DRY( 69, 56)   DRY( 69, 57)   DRY( 69, 58)   DRY( 69, 59)   
    DRY( 69, 60)   DRY( 69, 61)   DRY( 69, 62)   DRY( 69, 63)   DRY( 69, 64)   
    DRY( 69, 65)   DRY( 69, 66)   DRY( 69, 67)   DRY( 69, 68)   DRY( 69, 69)   
    DRY( 69, 70)   DRY( 69, 71)   DRY( 69, 72)   DRY( 69, 73)   DRY( 69, 74)   
    DRY( 69, 75)   DRY( 69, 76)   DRY( 69, 77)   DRY( 69, 78)   DRY( 69, 79)   
    DRY( 69, 80)   DRY( 69, 81)   DRY( 69, 82)   DRY( 69, 83)   DRY( 69, 84)   
    DRY( 69, 85)   DRY( 69, 86)   DRY( 69, 87)   DRY( 69, 88)   DRY( 69, 89)   
    DRY( 69, 90)   DRY( 69, 91)   DRY( 69, 92)   DRY( 69, 93)   DRY( 69, 94)   
    DRY( 69, 95)   DRY( 69, 96)   DRY( 69, 97)   DRY( 69, 98)   DRY( 69, 99)   
    DRY( 69,100)   DRY( 69,101)   DRY( 69,102)   DRY( 69,103)   DRY( 69,104)   
    DRY( 69,105)   DRY( 69,106)   DRY( 69,107)   DRY( 69,108)   DRY( 69,109)   
    DRY( 69,110)   DRY( 69,111)   DRY( 69,112)   DRY( 69,113)   DRY( 69,114)   
    DRY( 69,115)   DRY( 69,116)   DRY( 69,117)   DRY( 69,118)   DRY( 69,119)   
    DRY( 69,120)   DRY( 69,121)   DRY( 69,122)   DRY( 69,123)   DRY( 69,124)   
    DRY( 69,125)   DRY( 69,126)   DRY( 69,127)   DRY( 69,128)   DRY( 69,129)   
    DRY( 69,130)   DRY( 69,131)   DRY( 69,132)   DRY( 69,133)   DRY( 69,134)   
    DRY( 69,135)   DRY( 69,136)   DRY( 69,137)   DRY( 69,138)   DRY( 69,139)   
    DRY( 69,140)   DRY( 69,141)   DRY( 69,142)   DRY( 69,143)   DRY( 69,144)   
    DRY( 69,145)   DRY( 69,146)   DRY( 69,147)   DRY( 69,148)   DRY( 69,149)   
    DRY( 69,150)   DRY( 69,151)   DRY( 69,152)   DRY( 69,153)   DRY( 69,154)   
    DRY( 69,155)   DRY( 69,156)   DRY( 69,157)   DRY( 69,158)   DRY( 69,159)   
    DRY( 69,160)   DRY( 69,161)   DRY( 69,162)   DRY( 69,163)   DRY( 69,164)   
    DRY( 69,165)   DRY( 69,166)   DRY( 69,167)   DRY( 69,168)   DRY( 69,169)   
    DRY( 69,170)   DRY( 69,171)   DRY( 69,172)   DRY( 69,173)   DRY( 69,174)   
    DRY( 69,175)   DRY( 69,176)   DRY( 69,177)   DRY( 69,178)   DRY( 69,179)   
    DRY( 69,180)   DRY( 69,181)   DRY( 69,182)   DRY( 69,183)   DRY( 69,184)   
    DRY( 69,185)   DRY( 69,186)   DRY( 69,187)   DRY( 69,188)   DRY( 69,189)   
    DRY( 69,190)   DRY( 69,191)   DRY( 69,192)   DRY( 69,193)   DRY( 69,194)   
    DRY( 69,195)   DRY( 69,196)   DRY( 69,197)   DRY( 69,198)   DRY( 69,199)   
    DRY( 69,200)   DRY( 69,201)   DRY( 69,202)   DRY( 69,203)   DRY( 69,204)   
    DRY( 70,  1)   DRY( 70, 17)   DRY( 70, 18)   DRY( 70, 33)   DRY( 70, 34)   
    DRY( 70, 35)   DRY( 70, 36)   DRY( 70, 37)   DRY( 70, 38)   DRY( 70, 39)   
    DRY( 70, 40)   DRY( 70, 41)   DRY( 70, 42)   DRY( 70, 43)   DRY( 70, 44)   
    DRY( 70, 45)   DRY( 70, 46)   DRY( 70, 47)   DRY( 70, 48)   DRY( 70, 49)   
    DRY( 70, 50)   DRY( 70, 51)   DRY( 70, 52)   DRY( 70, 53)   DRY( 70, 54)   
    DRY( 70, 55)   DRY( 70, 56)   DRY( 70, 57)   DRY( 70, 58)   DRY( 70, 59)   
    DRY( 70, 60)   DRY( 70, 61)   DRY( 70, 62)   DRY( 70, 63)   DRY( 70, 64)   
    DRY( 70, 65)   DRY( 70, 66)   DRY( 70, 67)   DRY( 70, 68)   DRY( 70, 69)   
    DRY( 70, 70)   DRY( 70, 71)   DRY( 70, 72)   DRY( 70, 73)   DRY( 70, 74)   
    DRY( 70, 75)   DRY( 70, 76)   DRY( 70, 77)   DRY( 70, 78)   DRY( 70, 79)   
    DRY( 70, 80)   DRY( 70, 81)   DRY( 70, 82)   DRY( 70, 83)   DRY( 70, 84)   
    DRY( 70, 85)   DRY( 70, 86)   DRY( 70, 87)   DRY( 70, 88)   DRY( 70, 89)   
    DRY( 70, 90)   DRY( 70, 91)   DRY( 70, 92)   DRY( 70, 93)   DRY( 70, 94)   
    DRY( 70, 95)   DRY( 70, 96)   DRY( 70, 97)   DRY( 70, 98)   DRY( 70, 99)   
    DRY( 70,100)   DRY( 70,101)   DRY( 70,102)   DRY( 70,103)   DRY( 70,104)   
    DRY( 70,105)   DRY( 70,106)   DRY( 70,107)   DRY( 70,108)   DRY( 70,109)   
    DRY( 70,110)   DRY( 70,111)   DRY( 70,112)   DRY( 70,113)   DRY( 70,114)   
    DRY( 70,115)   DRY( 70,116)   DRY( 70,117)   DRY( 70,118)   DRY( 70,119)   
    DRY( 70,120)   DRY( 70,121)   DRY( 70,122)   DRY( 70,123)   DRY( 70,124)   
    DRY( 70,125)   DRY( 70,126)   DRY( 70,127)   DRY( 70,128)   DRY( 70,129)   
    DRY( 70,130)   DRY( 70,131)   DRY( 70,132)   DRY( 70,133)   DRY( 70,134)   
    DRY( 70,135)   DRY( 70,136)   DRY( 70,137)   DRY( 70,138)   DRY( 70,139)   
    DRY( 70,140)   DRY( 70,141)   DRY( 70,142)   DRY( 70,143)   DRY( 70,144)   
    DRY( 70,145)   DRY( 70,146)   DRY( 70,147)   DRY( 70,148)   DRY( 70,149)   
    DRY( 70,150)   DRY( 70,151)   DRY( 70,152)   DRY( 70,153)   DRY( 70,154)   
    DRY( 70,155)   DRY( 70,156)   DRY( 70,157)   DRY( 70,158)   DRY( 70,159)   
    DRY( 70,160)   DRY( 70,161)   DRY( 70,162)   DRY( 70,163)   DRY( 70,164)   
    DRY( 70,165)   DRY( 70,166)   DRY( 70,167)   DRY( 70,168)   DRY( 70,169)   
    DRY( 70,170)   DRY( 70,171)   DRY( 70,172)   DRY( 70,173)   DRY( 70,174)   
    DRY( 70,175)   DRY( 70,176)   DRY( 70,177)   DRY( 70,178)   DRY( 70,179)   
    DRY( 70,180)   DRY( 70,181)   DRY( 70,182)   DRY( 70,183)   DRY( 70,184)   
    DRY( 70,185)   DRY( 70,186)   DRY( 70,187)   DRY( 70,188)   DRY( 70,189)   
    DRY( 70,190)   DRY( 70,191)   DRY( 70,192)   DRY( 70,193)   DRY( 70,194)   
    DRY( 70,195)   DRY( 70,196)   DRY( 70,197)   DRY( 70,198)   DRY( 70,199)   
    DRY( 70,200)   DRY( 70,201)   DRY( 70,202)   DRY( 70,203)   DRY( 70,204)   
    DRY( 71,  1)   DRY( 71,  2)   DRY( 71, 17)   DRY( 71, 18)   DRY( 71, 19)   
    DRY( 71, 34)   DRY( 71, 35)   DRY( 71, 36)   DRY( 71, 37)   DRY( 71, 38)   
    DRY( 71, 39)   DRY( 71, 40)   DRY( 71, 41)   DRY( 71, 42)   DRY( 71, 43)   
    DRY( 71, 44)   DRY( 71, 45)   DRY( 71, 46)   DRY( 71, 47)   DRY( 71, 48)   
    DRY( 71, 49)   DRY( 71, 50)   DRY( 71, 51)   DRY( 71, 52)   DRY( 71, 53)   
    DRY( 71, 54)   DRY( 71, 55)   DRY( 71, 56)   DRY( 71, 57)   DRY( 71, 58)   
    DRY( 71, 59)   DRY( 71, 60)   DRY( 71, 61)   DRY( 71, 62)   DRY( 71, 63)   
    DRY( 71, 64)   DRY( 71, 65)   DRY( 71, 66)   DRY( 71, 67)   DRY( 71, 68)   
    DRY( 71, 69)   DRY( 71, 70)   DRY( 71, 71)   DRY( 71, 72)   DRY( 71, 73)   
    DRY( 71, 74)   DRY( 71, 75)   DRY( 71, 76)   DRY( 71, 77)   DRY( 71, 78)   
    DRY( 71, 79)   DRY( 71, 80)   DRY( 71, 81)   DRY( 71, 82)   DRY( 71, 83)   
    DRY( 71, 84)   DRY( 71, 85)   DRY( 71, 86)   DRY( 71, 87)   DRY( 71, 88)   
    DRY( 71, 89)   DRY( 71, 90)   DRY( 71, 91)   DRY( 71, 92)   DRY( 71, 93)   
    DRY( 71, 94)   DRY( 71, 95)   DRY( 71, 96)   DRY( 71, 97)   DRY( 71, 98)   
    DRY( 71, 99)   DRY( 71,100)   DRY( 71,101)   DRY( 71,102)   DRY( 71,103)   
    DRY( 71,104)   DRY( 71,105)   DRY( 71,106)   DRY( 71,107)   DRY( 71,108)   
    DRY( 71,109)   DRY( 71,110)   DRY( 71,111)   DRY( 71,112)   DRY( 71,113)   
    DRY( 71,114)   DRY( 71,115)   DRY( 71,116)   DRY( 71,117)   DRY( 71,118)   
    DRY( 71,119)   DRY( 71,120)   DRY( 71,121)   DRY( 71,122)   DRY( 71,123)   
    DRY( 71,124)   DRY( 71,125)   DRY( 71,126)   DRY( 71,127)   DRY( 71,128)   
    DRY( 71,129)   DRY( 71,130)   DRY( 71,131)   DRY( 71,132)   DRY( 71,133)   
    DRY( 71,134)   DRY( 71,135)   DRY( 71,136)   DRY( 71,137)   DRY( 71,138)   
    DRY( 71,139)   DRY( 71,140)   DRY( 71,141)   DRY( 71,142)   DRY( 71,143)   
    DRY( 71,144)   DRY( 71,145)   DRY( 71,146)   DRY( 71,147)   DRY( 71,148)   
    DRY( 71,149)   DRY( 71,150)   DRY( 71,151)   DRY( 71,152)   DRY( 71,153)   
    DRY( 71,154)   DRY( 71,155)   DRY( 71,156)   DRY( 71,157)   DRY( 71,158)   
    DRY( 71,159)   DRY( 71,160)   DRY( 71,161)   DRY( 71,162)   DRY( 71,163)   
    DRY( 71,164)   DRY( 71,165)   DRY( 71,166)   DRY( 71,167)   DRY( 71,168)   
    DRY( 71,169)   DRY( 71,170)   DRY( 71,171)   DRY( 71,172)   DRY( 71,173)   
    DRY( 71,174)   DRY( 71,175)   DRY( 71,176)   DRY( 71,177)   DRY( 71,178)   
    DRY( 71,179)   DRY( 71,180)   DRY( 71,181)   DRY( 71,182)   DRY( 71,183)   
    DRY( 71,184)   DRY( 71,185)   DRY( 71,186)   DRY( 71,187)   DRY( 71,188)   
    DRY( 71,189)   DRY( 71,190)   DRY( 71,191)   DRY( 71,192)   DRY( 71,193)   
    DRY( 71,194)   DRY( 71,195)   DRY( 71,196)   DRY( 71,197)   DRY( 71,198)   
    DRY( 71,199)   DRY( 71,200)   DRY( 71,201)   DRY( 71,202)   DRY( 72,  1)   
    DRY( 72,  2)   DRY( 72, 18)   DRY( 72, 19)   DRY( 72, 20)   DRY( 72, 35)   
    DRY( 72, 36)   DRY( 72, 37)   DRY( 72, 38)   DRY( 72, 39)   DRY( 72, 40)   
    DRY( 72, 41)   DRY( 72, 42)   DRY( 72, 43)   DRY( 72, 44)   DRY( 72, 45)   
    DRY( 72, 46)   DRY( 72, 47)   DRY( 72, 48)   DRY( 72, 49)   DRY( 72, 50)   
    DRY( 72, 51)   DRY( 72, 52)   DRY( 72, 53)   DRY( 72, 54)   DRY( 72, 55)   
    DRY( 72, 56)   DRY( 72, 57)   DRY( 72, 58)   DRY( 72, 59)   DRY( 72, 60)   
    DRY( 72, 61)   DRY( 72, 62)   DRY( 72, 63)   DRY( 72, 64)   DRY( 72, 65)   
    DRY( 72, 66)   DRY( 72, 67)   DRY( 72, 68)   DRY( 72, 69)   DRY( 72, 70)   
    DRY( 72, 71)   DRY( 72, 72)   DRY( 72, 73)   DRY( 72, 74)   DRY( 72, 75)   
    DRY( 72, 76)   DRY( 72, 77)   DRY( 72, 78)   DRY( 72, 79)   DRY( 72, 80)   
    DRY( 72, 81)   DRY( 72, 82)   DRY( 72, 83)   DRY( 72, 84)   DRY( 72, 85)   
    DRY( 72, 86)   DRY( 72, 87)   DRY( 72, 88)   DRY( 72, 89)   DRY( 72, 90)   
    DRY( 72, 91)   DRY( 72, 92)   DRY( 72, 93)   DRY( 72, 94)   DRY( 72, 95)   
    DRY( 72, 96)   DRY( 72, 97)   DRY( 72, 98)   DRY( 72, 99)   DRY( 72,100)   
    DRY( 72,101)   DRY( 72,102)   DRY( 72,103)   DRY( 72,104)   DRY( 72,105)   
    DRY( 72,106)   DRY( 72,107)   DRY( 72,108)   DRY( 72,109)   DRY( 72,110)   
    DRY( 72,111)   DRY( 72,112)   DRY( 72,113)   DRY( 72,114)   DRY( 72,115)   
    DRY( 72,116)   DRY( 72,117)   DRY( 72,118)   DRY( 72,119)   DRY( 72,120)   
    DRY( 72,121)   DRY( 72,122)   DRY( 72,123)   DRY( 72,124)   DRY( 72,125)   
    DRY( 72,126)   DRY( 72,127)   DRY( 72,128)   DRY( 72,129)   DRY( 72,130)   
    DRY( 72,131)   DRY( 72,132)   DRY( 72,133)   DRY( 72,134)   DRY( 72,135)   
    DRY( 72,136)   DRY( 72,137)   DRY( 72,138)   DRY( 72,139)   DRY( 72,140)   
    DRY( 72,141)   DRY( 72,142)   DRY( 72,143)   DRY( 72,144)   DRY( 72,145)   
    DRY( 72,146)   DRY( 72,147)   DRY( 72,148)   DRY( 72,149)   DRY( 72,150)   
    DRY( 72,151)   DRY( 72,152)   DRY( 72,153)   DRY( 72,154)   DRY( 72,155)   
    DRY( 72,156)   DRY( 72,157)   DRY( 72,158)   DRY( 72,159)   DRY( 72,160)   
    DRY( 72,161)   DRY( 72,162)   DRY( 72,163)   DRY( 72,164)   DRY( 72,165)   
    DRY( 72,166)   DRY( 72,167)   DRY( 72,168)   DRY( 72,169)   DRY( 72,170)   
    DRY( 72,171)   DRY( 72,172)   DRY( 72,173)   DRY( 72,174)   DRY( 72,175)   
    DRY( 72,176)   DRY( 72,177)   DRY( 72,178)   DRY( 72,179)   DRY( 72,180)   
    DRY( 72,181)   DRY( 72,182)   DRY( 72,183)   DRY( 72,184)   DRY( 72,185)   
    DRY( 72,186)   DRY( 72,187)   DRY( 72,188)   DRY( 72,189)   DRY( 72,190)   
    DRY( 72,191)   DRY( 72,192)   DRY( 72,193)   DRY( 72,194)   DRY( 72,195)   
    DRY( 72,196)   DRY( 72,197)   DRY( 72,198)   DRY( 72,199)   DRY( 72,200)   
    DRY( 72,201)   DRY( 72,202)   DRY( 73,  1)   DRY( 73,  2)   DRY( 73,  3)   
    DRY( 73, 18)   DRY( 73, 19)   DRY( 73, 20)   DRY( 73, 21)   DRY( 73, 22)   
    DRY( 73, 36)   DRY( 73, 37)   DRY( 73, 38)   DRY( 73, 39)   DRY( 73, 40)   
    DRY( 73, 41)   DRY( 73, 42)   DRY( 73, 43)   DRY( 73, 44)   DRY( 73, 45)   
    DRY( 73, 46)   DRY( 73, 47)   DRY( 73, 48)   DRY( 73, 49)   DRY( 73, 50)   
    DRY( 73, 51)   DRY( 73, 52)   DRY( 73, 53)   DRY( 73, 54)   DRY( 73, 55)   
    DRY( 73, 56)   DRY( 73, 57)   DRY( 73, 58)   DRY( 73, 59)   DRY( 73, 60)   
    DRY( 73, 61)   DRY( 73, 62)   DRY( 73, 63)   DRY( 73, 64)   DRY( 73, 65)   
    DRY( 73, 66)   DRY( 73, 67)   DRY( 73, 68)   DRY( 73, 69)   DRY( 73, 70)   
    DRY( 73, 71)   DRY( 73, 72)   DRY( 73, 73)   DRY( 73, 74)   DRY( 73, 75)   
    DRY( 73, 76)   DRY( 73, 77)   DRY( 73, 78)   DRY( 73, 79)   DRY( 73, 80)   
    DRY( 73, 81)   DRY( 73, 82)   DRY( 73, 83)   DRY( 73, 84)   DRY( 73, 85)   
    DRY( 73, 86)   DRY( 73, 87)   DRY( 73, 88)   DRY( 73, 89)   DRY( 73, 90)   
    DRY( 73, 91)   DRY( 73, 92)   DRY( 73, 93)   DRY( 73, 94)   DRY( 73, 95)   
    DRY( 73, 96)   DRY( 73, 97)   DRY( 73, 98)   DRY( 73, 99)   DRY( 73,100)   
    DRY( 73,101)   DRY( 73,102)   DRY( 73,103)   DRY( 73,104)   DRY( 73,105)   
    DRY( 73,106)   DRY( 73,107)   DRY( 73,108)   DRY( 73,109)   DRY( 73,110)   
    DRY( 73,111)   DRY( 73,112)   DRY( 73,113)   DRY( 73,114)   DRY( 73,115)   
    DRY( 73,116)   DRY( 73,117)   DRY( 73,118)   DRY( 73,119)   DRY( 73,120)   
    DRY( 73,121)   DRY( 73,122)   DRY( 73,123)   DRY( 73,124)   DRY( 73,125)   
    DRY( 73,126)   DRY( 73,127)   DRY( 73,128)   DRY( 73,129)   DRY( 73,130)   
    DRY( 73,131)   DRY( 73,132)   DRY( 73,133)   DRY( 73,134)   DRY( 73,135)   
    DRY( 73,136)   DRY( 73,137)   DRY( 73,138)   DRY( 73,139)   DRY( 73,140)   
    DRY( 73,141)   DRY( 73,142)   DRY( 73,143)   DRY( 73,144)   DRY( 73,145)   
    DRY( 73,146)   DRY( 73,147)   DRY( 73,148)   DRY( 73,149)   DRY( 73,150)   
    DRY( 73,151)   DRY( 73,152)   DRY( 73,153)   DRY( 73,154)   DRY( 73,155)   
    DRY( 73,156)   DRY( 73,157)   DRY( 73,158)   DRY( 73,159)   DRY( 73,160)   
    DRY( 73,161)   DRY( 73,162)   DRY( 73,163)   DRY( 73,164)   DRY( 73,165)   
    DRY( 73,166)   DRY( 73,167)   DRY( 73,168)   DRY( 73,169)   DRY( 73,170)   
    DRY( 73,171)   DRY( 73,172)   DRY( 73,173)   DRY( 73,174)   DRY( 73,175)   
    DRY( 73,176)   DRY( 73,177)   DRY( 73,178)   DRY( 73,179)   DRY( 73,180)   
    DRY( 73,181)   DRY( 73,182)   DRY( 73,183)   DRY( 73,184)   DRY( 73,185)   
    DRY( 73,186)   DRY( 73,187)   DRY( 73,188)   DRY( 73,189)   DRY( 73,190)   
    DRY( 73,191)   DRY( 73,192)   DRY( 73,193)   DRY( 73,194)   DRY( 73,195)   
    DRY( 73,196)   DRY( 73,197)   DRY( 73,198)   DRY( 73,199)   DRY( 73,200)   
    DRY( 73,201)   DRY( 73,202)   DRY( 74,  1)   DRY( 74,  2)   DRY( 74,  3)   
    DRY( 74, 19)   DRY( 74, 20)   DRY( 74, 21)   DRY( 74, 22)   DRY( 74, 23)   
    DRY( 74, 36)   DRY( 74, 37)   DRY( 74, 38)   DRY( 74, 39)   DRY( 74, 40)   
    DRY( 74, 41)   DRY( 74, 42)   DRY( 74, 43)   DRY( 74, 44)   DRY( 74, 45)   
    DRY( 74, 46)   DRY( 74, 47)   DRY( 74, 48)   DRY( 74, 49)   DRY( 74, 50)   
    DRY( 74, 51)   DRY( 74, 52)   DRY( 74, 53)   DRY( 74, 54)   DRY( 74, 55)   
    DRY( 74, 56)   DRY( 74, 57)   DRY( 74, 58)   DRY( 74, 59)   DRY( 74, 60)   
    DRY( 74, 61)   DRY( 74, 62)   DRY( 74, 63)   DRY( 74, 64)   DRY( 74, 65)   
    DRY( 74, 66)   DRY( 74, 67)   DRY( 74, 68)   DRY( 74, 69)   DRY( 74, 70)   
    DRY( 74, 71)   DRY( 74, 72)   DRY( 74, 73)   DRY( 74, 74)   DRY( 74, 75)   
    DRY( 74, 76)   DRY( 74, 77)   DRY( 74, 78)   DRY( 74, 79)   DRY( 74, 80)   
    DRY( 74, 81)   DRY( 74, 82)   DRY( 74, 83)   DRY( 74, 84)   DRY( 74, 85)   
    DRY( 74, 86)   DRY( 74, 87)   DRY( 74, 88)   DRY( 74, 89)   DRY( 74, 90)   
    DRY( 74, 91)   DRY( 74, 92)   DRY( 74, 93)   DRY( 74, 94)   DRY( 74, 95)   
    DRY( 74, 96)   DRY( 74, 97)   DRY( 74, 98)   DRY( 74, 99)   DRY( 74,100)   
    DRY( 74,101)   DRY( 74,102)   DRY( 74,103)   DRY( 74,104)   DRY( 74,105)   
    DRY( 74,106)   DRY( 74,107)   DRY( 74,108)   DRY( 74,109)   DRY( 74,110)   
    DRY( 74,111)   DRY( 74,112)   DRY( 74,113)   DRY( 74,114)   DRY( 74,115)   
    DRY( 74,116)   DRY( 74,117)   DRY( 74,118)   DRY( 74,119)   DRY( 74,120)   
    DRY( 74,121)   DRY( 74,122)   DRY( 74,123)   DRY( 74,124)   DRY( 74,125)   
    DRY( 74,126)   DRY( 74,127)   DRY( 74,128)   DRY( 74,129)   DRY( 74,130)   
    DRY( 74,131)   DRY( 74,132)   DRY( 74,133)   DRY( 74,134)   DRY( 74,135)   
    DRY( 74,136)   DRY( 74,137)   DRY( 74,138)   DRY( 74,139)   DRY( 74,140)   
    DRY( 74,141)   DRY( 74,142)   DRY( 74,143)   DRY( 74,144)   DRY( 74,145)   
    DRY( 74,146)   DRY( 74,147)   DRY( 74,148)   DRY( 74,149)   DRY( 74,150)   
    DRY( 74,151)   DRY( 74,152)   DRY( 74,153)   DRY( 74,154)   DRY( 74,155)   
    DRY( 74,156)   DRY( 74,157)   DRY( 74,158)   DRY( 74,159)   DRY( 74,160)   
    DRY( 74,161)   DRY( 74,162)   DRY( 74,163)   DRY( 74,164)   DRY( 74,165)   
    DRY( 74,166)   DRY( 74,167)   DRY( 74,168)   DRY( 74,169)   DRY( 74,170)   
    DRY( 74,171)   DRY( 74,172)   DRY( 74,173)   DRY( 74,174)   DRY( 74,175)   
    DRY( 74,176)   DRY( 74,177)   DRY( 74,178)   DRY( 74,179)   DRY( 74,180)   
    DRY( 74,181)   DRY( 74,182)   DRY( 74,183)   DRY( 74,184)   DRY( 74,185)   
    DRY( 74,186)   DRY( 74,187)   DRY( 74,188)   DRY( 74,189)   DRY( 74,190)   
    DRY( 74,191)   DRY( 74,192)   DRY( 74,193)   DRY( 74,194)   DRY( 74,195)   
    DRY( 74,196)   DRY( 74,197)   DRY( 74,198)   DRY( 74,199)   DRY( 74,200)   
    DRY( 74,201)   DRY( 74,202)   DRY( 74,203)   

 OUTPUT CONTROL FOR STRESS PERIOD    1   TIME STEP    1
    SAVE HEAD FOR ALL LAYERS

 HEAD WILL BE SAVED ON UNIT   51 AT END OF TIME STEP    1, STRESS PERIOD    1
1
  VOLUMETRIC BUDGET FOR ENTIRE MODEL AT END OF TIME STEP    1, STRESS PERIOD   1
  ------------------------------------------------------------------------------

     CUMULATIVE VOLUMES      L**3       RATES FOR THIS TIME STEP      L**3/T
     ------------------                 ------------------------

           IN:                                      IN:
           ---                                      ---
             STORAGE =           0.0000               STORAGE =           0.0000
       CONSTANT HEAD =       8.4560E-06         CONSTANT HEAD =       8.4560E-06

            TOTAL IN =       8.4560E-06              TOTAL IN =       8.4560E-06

          OUT:                                     OUT:
          ----                                     ----
             STORAGE =           0.0000               STORAGE =           0.0000
       CONSTANT HEAD =       6.1491E-05         CONSTANT HEAD =       6.1491E-05

           TOTAL OUT =       6.1491E-05             TOTAL OUT =       6.1491E-05

            IN - OUT =      -5.3035E-05              IN - OUT =      -5.3035E-05

 PERCENT DISCREPANCY =        -151.64     PERCENT DISCREPANCY =        -151.64






         TIME SUMMARY AT END OF TIME STEP    1 IN STRESS PERIOD    1
                    SECONDS     MINUTES      HOURS       DAYS        YEARS
                    -----------------------------------------------------------
   TIME STEP LENGTH  86400.      1440.0      24.000      1.0000     2.73785E-03
 STRESS PERIOD TIME  86400.      1440.0      24.000      1.0000     2.73785E-03
         TOTAL TIME  86400.      1440.0      24.000      1.0000     2.73785E-03
1

 Run end date and time (yyyy/mm/dd hh:mm:ss): 2023/09/06 23:51:44
 Elapsed run time:  9.332 Seconds

